*SPEF "ieee 1481-1999"
*DESIGN "spi_device"
*DATE "11:11:11 Fri 11 11, 1111"
*VENDOR "OpenRCX"
*PROGRAM "Parallel Extraction"
*VERSION "1.0"
*DESIGN_FLOW "NAME_SCOPE LOCAL" "PIN_CAP NONE"
*DIVIDER /
*DELIMITER :
*BUS_DELIMITER []
*T_UNIT 1 NS
*C_UNIT 1 PF
*R_UNIT 1 OHM
*L_UNIT 1 HENRY

*NAME_MAP
*1 net5
*2 net6
*3 net7
*4 reg_bus
*5 reg_clk
*6 net8
*7 spi_clk
*8 spi_miso
*9 spi_mosi
*10 spi_sel
*13 _00_
*14 _01_
*15 _02_
*16 _09_
*17 _10_
*18 _11_
*19 _12_
*20 _13_
*21 _14_
*22 _15_
*23 _16_
*24 _17_
*25 _18_
*26 _19_
*27 _20_
*28 _21_
*29 _22_
*30 _23_
*31 _24_
*32 _25_
*33 _26_
*34 _27_
*35 _28_
*36 _29_
*37 _30_
*38 _31_
*39 clknet_0_spi_clk
*40 clknet_1_0__leaf_spi_clk
*41 clknet_1_1__leaf_spi_clk
*42 net1
*43 net10
*44 net11
*45 net12
*46 net13
*47 net14
*48 net15
*49 net2
*50 net3
*51 net4
*52 net9
*53 pres_state\[0\]
*54 pres_state\[1\]
*55 t\[0\]
*56 t\[1\]
*57 t\[2\]
*58 t\[3\]
*59 ANTENNA__70__D
*60 ANTENNA__71__D
*61 ANTENNA__71__GATE_N
*62 ANTENNA_clkbuf_0_spi_clk_A
*63 ANTENNA_input1_A
*64 ANTENNA_output2_A
*65 ANTENNA_output3_A
*66 FILLER_0_109
*67 FILLER_0_113
*68 FILLER_0_125
*69 FILLER_0_137
*70 FILLER_0_141
*71 FILLER_0_15
*72 FILLER_0_153
*73 FILLER_0_165
*74 FILLER_0_169
*75 FILLER_0_181
*76 FILLER_0_193
*77 FILLER_0_197
*78 FILLER_0_209
*79 FILLER_0_221
*80 FILLER_0_225
*81 FILLER_0_237
*82 FILLER_0_249
*83 FILLER_0_253
*84 FILLER_0_265
*85 FILLER_0_27
*86 FILLER_0_277
*87 FILLER_0_281
*88 FILLER_0_29
*89 FILLER_0_293
*90 FILLER_0_3
*91 FILLER_0_305
*92 FILLER_0_309
*93 FILLER_0_321
*94 FILLER_0_333
*95 FILLER_0_337
*96 FILLER_0_349
*97 FILLER_0_361
*98 FILLER_0_365
*99 FILLER_0_377
*100 FILLER_0_389
*101 FILLER_0_393
*102 FILLER_0_405
*103 FILLER_0_41
*104 FILLER_0_417
*105 FILLER_0_421
*106 FILLER_0_433
*107 FILLER_0_445
*108 FILLER_0_449
*109 FILLER_0_461
*110 FILLER_0_473
*111 FILLER_0_477
*112 FILLER_0_489
*113 FILLER_0_501
*114 FILLER_0_505
*115 FILLER_0_513
*116 FILLER_0_53
*117 FILLER_0_57
*118 FILLER_0_69
*119 FILLER_0_81
*120 FILLER_0_85
*121 FILLER_0_97
*122 FILLER_10_109
*123 FILLER_10_121
*124 FILLER_10_133
*125 FILLER_10_139
*126 FILLER_10_141
*127 FILLER_10_15
*128 FILLER_10_153
*129 FILLER_10_165
*130 FILLER_10_177
*131 FILLER_10_189
*132 FILLER_10_195
*133 FILLER_10_197
*134 FILLER_10_209
*135 FILLER_10_221
*136 FILLER_10_233
*137 FILLER_10_245
*138 FILLER_10_251
*139 FILLER_10_253
*140 FILLER_10_265
*141 FILLER_10_27
*142 FILLER_10_277
*143 FILLER_10_289
*144 FILLER_10_29
*145 FILLER_10_3
*146 FILLER_10_301
*147 FILLER_10_307
*148 FILLER_10_309
*149 FILLER_10_321
*150 FILLER_10_333
*151 FILLER_10_345
*152 FILLER_10_357
*153 FILLER_10_363
*154 FILLER_10_365
*155 FILLER_10_377
*156 FILLER_10_389
*157 FILLER_10_401
*158 FILLER_10_41
*159 FILLER_10_413
*160 FILLER_10_419
*161 FILLER_10_421
*162 FILLER_10_433
*163 FILLER_10_445
*164 FILLER_10_457
*165 FILLER_10_469
*166 FILLER_10_475
*167 FILLER_10_477
*168 FILLER_10_489
*169 FILLER_10_501
*170 FILLER_10_513
*171 FILLER_10_53
*172 FILLER_10_65
*173 FILLER_10_77
*174 FILLER_10_83
*175 FILLER_10_85
*176 FILLER_10_97
*177 FILLER_11_105
*178 FILLER_11_111
*179 FILLER_11_113
*180 FILLER_11_125
*181 FILLER_11_137
*182 FILLER_11_149
*183 FILLER_11_15
*184 FILLER_11_161
*185 FILLER_11_167
*186 FILLER_11_169
*187 FILLER_11_181
*188 FILLER_11_193
*189 FILLER_11_205
*190 FILLER_11_217
*191 FILLER_11_223
*192 FILLER_11_225
*193 FILLER_11_237
*194 FILLER_11_249
*195 FILLER_11_261
*196 FILLER_11_27
*197 FILLER_11_273
*198 FILLER_11_279
*199 FILLER_11_281
*200 FILLER_11_293
*201 FILLER_11_3
*202 FILLER_11_305
*203 FILLER_11_317
*204 FILLER_11_329
*205 FILLER_11_335
*206 FILLER_11_337
*207 FILLER_11_349
*208 FILLER_11_361
*209 FILLER_11_373
*210 FILLER_11_385
*211 FILLER_11_39
*212 FILLER_11_391
*213 FILLER_11_393
*214 FILLER_11_405
*215 FILLER_11_417
*216 FILLER_11_429
*217 FILLER_11_441
*218 FILLER_11_447
*219 FILLER_11_449
*220 FILLER_11_461
*221 FILLER_11_473
*222 FILLER_11_485
*223 FILLER_11_497
*224 FILLER_11_503
*225 FILLER_11_505
*226 FILLER_11_51
*227 FILLER_11_513
*228 FILLER_11_55
*229 FILLER_11_57
*230 FILLER_11_69
*231 FILLER_11_81
*232 FILLER_11_93
*233 FILLER_12_109
*234 FILLER_12_121
*235 FILLER_12_133
*236 FILLER_12_139
*237 FILLER_12_141
*238 FILLER_12_15
*239 FILLER_12_153
*240 FILLER_12_165
*241 FILLER_12_177
*242 FILLER_12_189
*243 FILLER_12_195
*244 FILLER_12_197
*245 FILLER_12_209
*246 FILLER_12_221
*247 FILLER_12_233
*248 FILLER_12_245
*249 FILLER_12_251
*250 FILLER_12_253
*251 FILLER_12_265
*252 FILLER_12_27
*253 FILLER_12_277
*254 FILLER_12_289
*255 FILLER_12_29
*256 FILLER_12_3
*257 FILLER_12_301
*258 FILLER_12_307
*259 FILLER_12_309
*260 FILLER_12_321
*261 FILLER_12_333
*262 FILLER_12_345
*263 FILLER_12_357
*264 FILLER_12_363
*265 FILLER_12_365
*266 FILLER_12_377
*267 FILLER_12_389
*268 FILLER_12_401
*269 FILLER_12_41
*270 FILLER_12_413
*271 FILLER_12_419
*272 FILLER_12_421
*273 FILLER_12_433
*274 FILLER_12_445
*275 FILLER_12_457
*276 FILLER_12_469
*277 FILLER_12_475
*278 FILLER_12_477
*279 FILLER_12_489
*280 FILLER_12_501
*281 FILLER_12_513
*282 FILLER_12_53
*283 FILLER_12_65
*284 FILLER_12_77
*285 FILLER_12_83
*286 FILLER_12_85
*287 FILLER_12_97
*288 FILLER_13_105
*289 FILLER_13_111
*290 FILLER_13_113
*291 FILLER_13_125
*292 FILLER_13_137
*293 FILLER_13_149
*294 FILLER_13_15
*295 FILLER_13_161
*296 FILLER_13_167
*297 FILLER_13_169
*298 FILLER_13_181
*299 FILLER_13_193
*300 FILLER_13_205
*301 FILLER_13_217
*302 FILLER_13_223
*303 FILLER_13_225
*304 FILLER_13_237
*305 FILLER_13_249
*306 FILLER_13_261
*307 FILLER_13_27
*308 FILLER_13_273
*309 FILLER_13_279
*310 FILLER_13_281
*311 FILLER_13_293
*312 FILLER_13_3
*313 FILLER_13_305
*314 FILLER_13_317
*315 FILLER_13_329
*316 FILLER_13_335
*317 FILLER_13_337
*318 FILLER_13_349
*319 FILLER_13_361
*320 FILLER_13_373
*321 FILLER_13_385
*322 FILLER_13_39
*323 FILLER_13_391
*324 FILLER_13_393
*325 FILLER_13_405
*326 FILLER_13_417
*327 FILLER_13_429
*328 FILLER_13_441
*329 FILLER_13_447
*330 FILLER_13_449
*331 FILLER_13_461
*332 FILLER_13_473
*333 FILLER_13_485
*334 FILLER_13_497
*335 FILLER_13_503
*336 FILLER_13_505
*337 FILLER_13_51
*338 FILLER_13_513
*339 FILLER_13_55
*340 FILLER_13_57
*341 FILLER_13_69
*342 FILLER_13_81
*343 FILLER_13_93
*344 FILLER_14_109
*345 FILLER_14_121
*346 FILLER_14_133
*347 FILLER_14_139
*348 FILLER_14_141
*349 FILLER_14_15
*350 FILLER_14_153
*351 FILLER_14_165
*352 FILLER_14_177
*353 FILLER_14_189
*354 FILLER_14_195
*355 FILLER_14_197
*356 FILLER_14_209
*357 FILLER_14_221
*358 FILLER_14_233
*359 FILLER_14_245
*360 FILLER_14_251
*361 FILLER_14_253
*362 FILLER_14_265
*363 FILLER_14_27
*364 FILLER_14_277
*365 FILLER_14_289
*366 FILLER_14_29
*367 FILLER_14_3
*368 FILLER_14_301
*369 FILLER_14_307
*370 FILLER_14_309
*371 FILLER_14_321
*372 FILLER_14_333
*373 FILLER_14_345
*374 FILLER_14_357
*375 FILLER_14_363
*376 FILLER_14_365
*377 FILLER_14_377
*378 FILLER_14_389
*379 FILLER_14_401
*380 FILLER_14_41
*381 FILLER_14_413
*382 FILLER_14_419
*383 FILLER_14_421
*384 FILLER_14_433
*385 FILLER_14_445
*386 FILLER_14_457
*387 FILLER_14_469
*388 FILLER_14_475
*389 FILLER_14_477
*390 FILLER_14_489
*391 FILLER_14_501
*392 FILLER_14_513
*393 FILLER_14_53
*394 FILLER_14_65
*395 FILLER_14_77
*396 FILLER_14_83
*397 FILLER_14_85
*398 FILLER_14_97
*399 FILLER_15_105
*400 FILLER_15_111
*401 FILLER_15_113
*402 FILLER_15_125
*403 FILLER_15_137
*404 FILLER_15_149
*405 FILLER_15_15
*406 FILLER_15_161
*407 FILLER_15_167
*408 FILLER_15_169
*409 FILLER_15_181
*410 FILLER_15_193
*411 FILLER_15_205
*412 FILLER_15_217
*413 FILLER_15_223
*414 FILLER_15_225
*415 FILLER_15_237
*416 FILLER_15_249
*417 FILLER_15_261
*418 FILLER_15_27
*419 FILLER_15_273
*420 FILLER_15_279
*421 FILLER_15_281
*422 FILLER_15_293
*423 FILLER_15_3
*424 FILLER_15_305
*425 FILLER_15_317
*426 FILLER_15_329
*427 FILLER_15_335
*428 FILLER_15_337
*429 FILLER_15_349
*430 FILLER_15_361
*431 FILLER_15_373
*432 FILLER_15_385
*433 FILLER_15_39
*434 FILLER_15_391
*435 FILLER_15_393
*436 FILLER_15_405
*437 FILLER_15_417
*438 FILLER_15_429
*439 FILLER_15_441
*440 FILLER_15_447
*441 FILLER_15_449
*442 FILLER_15_461
*443 FILLER_15_473
*444 FILLER_15_485
*445 FILLER_15_497
*446 FILLER_15_503
*447 FILLER_15_505
*448 FILLER_15_51
*449 FILLER_15_513
*450 FILLER_15_55
*451 FILLER_15_57
*452 FILLER_15_69
*453 FILLER_15_81
*454 FILLER_15_93
*455 FILLER_16_109
*456 FILLER_16_121
*457 FILLER_16_133
*458 FILLER_16_139
*459 FILLER_16_141
*460 FILLER_16_15
*461 FILLER_16_153
*462 FILLER_16_165
*463 FILLER_16_177
*464 FILLER_16_189
*465 FILLER_16_195
*466 FILLER_16_197
*467 FILLER_16_209
*468 FILLER_16_221
*469 FILLER_16_233
*470 FILLER_16_245
*471 FILLER_16_251
*472 FILLER_16_253
*473 FILLER_16_265
*474 FILLER_16_27
*475 FILLER_16_277
*476 FILLER_16_289
*477 FILLER_16_29
*478 FILLER_16_3
*479 FILLER_16_301
*480 FILLER_16_307
*481 FILLER_16_309
*482 FILLER_16_321
*483 FILLER_16_333
*484 FILLER_16_345
*485 FILLER_16_357
*486 FILLER_16_363
*487 FILLER_16_365
*488 FILLER_16_377
*489 FILLER_16_389
*490 FILLER_16_401
*491 FILLER_16_41
*492 FILLER_16_413
*493 FILLER_16_419
*494 FILLER_16_421
*495 FILLER_16_433
*496 FILLER_16_445
*497 FILLER_16_457
*498 FILLER_16_469
*499 FILLER_16_475
*500 FILLER_16_477
*501 FILLER_16_489
*502 FILLER_16_501
*503 FILLER_16_513
*504 FILLER_16_53
*505 FILLER_16_65
*506 FILLER_16_77
*507 FILLER_16_83
*508 FILLER_16_85
*509 FILLER_16_97
*510 FILLER_17_105
*511 FILLER_17_111
*512 FILLER_17_113
*513 FILLER_17_125
*514 FILLER_17_137
*515 FILLER_17_149
*516 FILLER_17_15
*517 FILLER_17_161
*518 FILLER_17_167
*519 FILLER_17_169
*520 FILLER_17_181
*521 FILLER_17_193
*522 FILLER_17_205
*523 FILLER_17_217
*524 FILLER_17_223
*525 FILLER_17_225
*526 FILLER_17_237
*527 FILLER_17_249
*528 FILLER_17_261
*529 FILLER_17_27
*530 FILLER_17_273
*531 FILLER_17_279
*532 FILLER_17_281
*533 FILLER_17_293
*534 FILLER_17_3
*535 FILLER_17_305
*536 FILLER_17_317
*537 FILLER_17_329
*538 FILLER_17_335
*539 FILLER_17_337
*540 FILLER_17_349
*541 FILLER_17_361
*542 FILLER_17_373
*543 FILLER_17_385
*544 FILLER_17_39
*545 FILLER_17_391
*546 FILLER_17_393
*547 FILLER_17_405
*548 FILLER_17_417
*549 FILLER_17_429
*550 FILLER_17_441
*551 FILLER_17_447
*552 FILLER_17_449
*553 FILLER_17_461
*554 FILLER_17_473
*555 FILLER_17_485
*556 FILLER_17_497
*557 FILLER_17_503
*558 FILLER_17_505
*559 FILLER_17_51
*560 FILLER_17_513
*561 FILLER_17_55
*562 FILLER_17_57
*563 FILLER_17_69
*564 FILLER_17_81
*565 FILLER_17_93
*566 FILLER_18_109
*567 FILLER_18_121
*568 FILLER_18_133
*569 FILLER_18_139
*570 FILLER_18_141
*571 FILLER_18_15
*572 FILLER_18_153
*573 FILLER_18_165
*574 FILLER_18_177
*575 FILLER_18_189
*576 FILLER_18_195
*577 FILLER_18_197
*578 FILLER_18_209
*579 FILLER_18_221
*580 FILLER_18_233
*581 FILLER_18_245
*582 FILLER_18_251
*583 FILLER_18_253
*584 FILLER_18_265
*585 FILLER_18_27
*586 FILLER_18_277
*587 FILLER_18_289
*588 FILLER_18_29
*589 FILLER_18_3
*590 FILLER_18_301
*591 FILLER_18_307
*592 FILLER_18_309
*593 FILLER_18_321
*594 FILLER_18_333
*595 FILLER_18_345
*596 FILLER_18_357
*597 FILLER_18_363
*598 FILLER_18_365
*599 FILLER_18_377
*600 FILLER_18_389
*601 FILLER_18_401
*602 FILLER_18_41
*603 FILLER_18_413
*604 FILLER_18_419
*605 FILLER_18_421
*606 FILLER_18_433
*607 FILLER_18_445
*608 FILLER_18_457
*609 FILLER_18_469
*610 FILLER_18_475
*611 FILLER_18_477
*612 FILLER_18_489
*613 FILLER_18_501
*614 FILLER_18_513
*615 FILLER_18_53
*616 FILLER_18_65
*617 FILLER_18_77
*618 FILLER_18_83
*619 FILLER_18_85
*620 FILLER_18_97
*621 FILLER_19_105
*622 FILLER_19_111
*623 FILLER_19_113
*624 FILLER_19_125
*625 FILLER_19_137
*626 FILLER_19_149
*627 FILLER_19_15
*628 FILLER_19_161
*629 FILLER_19_167
*630 FILLER_19_169
*631 FILLER_19_181
*632 FILLER_19_193
*633 FILLER_19_205
*634 FILLER_19_217
*635 FILLER_19_223
*636 FILLER_19_225
*637 FILLER_19_237
*638 FILLER_19_249
*639 FILLER_19_261
*640 FILLER_19_27
*641 FILLER_19_273
*642 FILLER_19_279
*643 FILLER_19_281
*644 FILLER_19_293
*645 FILLER_19_3
*646 FILLER_19_305
*647 FILLER_19_317
*648 FILLER_19_329
*649 FILLER_19_335
*650 FILLER_19_337
*651 FILLER_19_349
*652 FILLER_19_361
*653 FILLER_19_373
*654 FILLER_19_385
*655 FILLER_19_39
*656 FILLER_19_391
*657 FILLER_19_393
*658 FILLER_19_405
*659 FILLER_19_417
*660 FILLER_19_429
*661 FILLER_19_441
*662 FILLER_19_447
*663 FILLER_19_449
*664 FILLER_19_461
*665 FILLER_19_473
*666 FILLER_19_485
*667 FILLER_19_497
*668 FILLER_19_503
*669 FILLER_19_505
*670 FILLER_19_51
*671 FILLER_19_513
*672 FILLER_19_55
*673 FILLER_19_57
*674 FILLER_19_69
*675 FILLER_19_81
*676 FILLER_19_93
*677 FILLER_1_105
*678 FILLER_1_111
*679 FILLER_1_113
*680 FILLER_1_125
*681 FILLER_1_137
*682 FILLER_1_149
*683 FILLER_1_15
*684 FILLER_1_161
*685 FILLER_1_167
*686 FILLER_1_169
*687 FILLER_1_181
*688 FILLER_1_193
*689 FILLER_1_205
*690 FILLER_1_217
*691 FILLER_1_223
*692 FILLER_1_225
*693 FILLER_1_237
*694 FILLER_1_249
*695 FILLER_1_261
*696 FILLER_1_27
*697 FILLER_1_273
*698 FILLER_1_279
*699 FILLER_1_281
*700 FILLER_1_293
*701 FILLER_1_3
*702 FILLER_1_305
*703 FILLER_1_317
*704 FILLER_1_329
*705 FILLER_1_335
*706 FILLER_1_337
*707 FILLER_1_349
*708 FILLER_1_361
*709 FILLER_1_373
*710 FILLER_1_385
*711 FILLER_1_39
*712 FILLER_1_391
*713 FILLER_1_393
*714 FILLER_1_405
*715 FILLER_1_417
*716 FILLER_1_429
*717 FILLER_1_441
*718 FILLER_1_447
*719 FILLER_1_449
*720 FILLER_1_461
*721 FILLER_1_473
*722 FILLER_1_485
*723 FILLER_1_497
*724 FILLER_1_503
*725 FILLER_1_505
*726 FILLER_1_51
*727 FILLER_1_513
*728 FILLER_1_55
*729 FILLER_1_57
*730 FILLER_1_69
*731 FILLER_1_81
*732 FILLER_1_93
*733 FILLER_20_109
*734 FILLER_20_121
*735 FILLER_20_133
*736 FILLER_20_139
*737 FILLER_20_141
*738 FILLER_20_15
*739 FILLER_20_153
*740 FILLER_20_165
*741 FILLER_20_177
*742 FILLER_20_189
*743 FILLER_20_195
*744 FILLER_20_197
*745 FILLER_20_209
*746 FILLER_20_221
*747 FILLER_20_233
*748 FILLER_20_245
*749 FILLER_20_251
*750 FILLER_20_253
*751 FILLER_20_265
*752 FILLER_20_27
*753 FILLER_20_277
*754 FILLER_20_289
*755 FILLER_20_29
*756 FILLER_20_3
*757 FILLER_20_301
*758 FILLER_20_307
*759 FILLER_20_309
*760 FILLER_20_321
*761 FILLER_20_333
*762 FILLER_20_345
*763 FILLER_20_357
*764 FILLER_20_363
*765 FILLER_20_365
*766 FILLER_20_377
*767 FILLER_20_389
*768 FILLER_20_401
*769 FILLER_20_41
*770 FILLER_20_413
*771 FILLER_20_419
*772 FILLER_20_421
*773 FILLER_20_433
*774 FILLER_20_445
*775 FILLER_20_457
*776 FILLER_20_469
*777 FILLER_20_475
*778 FILLER_20_477
*779 FILLER_20_489
*780 FILLER_20_501
*781 FILLER_20_513
*782 FILLER_20_53
*783 FILLER_20_65
*784 FILLER_20_77
*785 FILLER_20_83
*786 FILLER_20_85
*787 FILLER_20_97
*788 FILLER_21_105
*789 FILLER_21_111
*790 FILLER_21_113
*791 FILLER_21_125
*792 FILLER_21_137
*793 FILLER_21_149
*794 FILLER_21_15
*795 FILLER_21_161
*796 FILLER_21_167
*797 FILLER_21_169
*798 FILLER_21_181
*799 FILLER_21_193
*800 FILLER_21_205
*801 FILLER_21_217
*802 FILLER_21_223
*803 FILLER_21_225
*804 FILLER_21_237
*805 FILLER_21_249
*806 FILLER_21_261
*807 FILLER_21_27
*808 FILLER_21_273
*809 FILLER_21_279
*810 FILLER_21_281
*811 FILLER_21_293
*812 FILLER_21_3
*813 FILLER_21_305
*814 FILLER_21_317
*815 FILLER_21_329
*816 FILLER_21_335
*817 FILLER_21_337
*818 FILLER_21_349
*819 FILLER_21_361
*820 FILLER_21_373
*821 FILLER_21_385
*822 FILLER_21_39
*823 FILLER_21_391
*824 FILLER_21_393
*825 FILLER_21_405
*826 FILLER_21_417
*827 FILLER_21_429
*828 FILLER_21_441
*829 FILLER_21_447
*830 FILLER_21_449
*831 FILLER_21_461
*832 FILLER_21_473
*833 FILLER_21_485
*834 FILLER_21_497
*835 FILLER_21_503
*836 FILLER_21_505
*837 FILLER_21_51
*838 FILLER_21_513
*839 FILLER_21_55
*840 FILLER_21_57
*841 FILLER_21_69
*842 FILLER_21_81
*843 FILLER_21_93
*844 FILLER_22_109
*845 FILLER_22_121
*846 FILLER_22_133
*847 FILLER_22_139
*848 FILLER_22_141
*849 FILLER_22_15
*850 FILLER_22_153
*851 FILLER_22_165
*852 FILLER_22_177
*853 FILLER_22_189
*854 FILLER_22_195
*855 FILLER_22_197
*856 FILLER_22_209
*857 FILLER_22_221
*858 FILLER_22_233
*859 FILLER_22_245
*860 FILLER_22_251
*861 FILLER_22_253
*862 FILLER_22_265
*863 FILLER_22_27
*864 FILLER_22_277
*865 FILLER_22_289
*866 FILLER_22_29
*867 FILLER_22_3
*868 FILLER_22_301
*869 FILLER_22_307
*870 FILLER_22_309
*871 FILLER_22_321
*872 FILLER_22_333
*873 FILLER_22_345
*874 FILLER_22_357
*875 FILLER_22_363
*876 FILLER_22_365
*877 FILLER_22_377
*878 FILLER_22_389
*879 FILLER_22_401
*880 FILLER_22_41
*881 FILLER_22_413
*882 FILLER_22_419
*883 FILLER_22_421
*884 FILLER_22_433
*885 FILLER_22_445
*886 FILLER_22_457
*887 FILLER_22_469
*888 FILLER_22_475
*889 FILLER_22_477
*890 FILLER_22_489
*891 FILLER_22_501
*892 FILLER_22_513
*893 FILLER_22_53
*894 FILLER_22_65
*895 FILLER_22_77
*896 FILLER_22_83
*897 FILLER_22_85
*898 FILLER_22_97
*899 FILLER_23_105
*900 FILLER_23_111
*901 FILLER_23_113
*902 FILLER_23_125
*903 FILLER_23_137
*904 FILLER_23_149
*905 FILLER_23_15
*906 FILLER_23_161
*907 FILLER_23_167
*908 FILLER_23_169
*909 FILLER_23_181
*910 FILLER_23_193
*911 FILLER_23_205
*912 FILLER_23_217
*913 FILLER_23_223
*914 FILLER_23_225
*915 FILLER_23_237
*916 FILLER_23_249
*917 FILLER_23_261
*918 FILLER_23_27
*919 FILLER_23_273
*920 FILLER_23_279
*921 FILLER_23_281
*922 FILLER_23_293
*923 FILLER_23_3
*924 FILLER_23_305
*925 FILLER_23_317
*926 FILLER_23_329
*927 FILLER_23_335
*928 FILLER_23_337
*929 FILLER_23_349
*930 FILLER_23_361
*931 FILLER_23_373
*932 FILLER_23_385
*933 FILLER_23_39
*934 FILLER_23_391
*935 FILLER_23_393
*936 FILLER_23_405
*937 FILLER_23_417
*938 FILLER_23_429
*939 FILLER_23_441
*940 FILLER_23_447
*941 FILLER_23_449
*942 FILLER_23_461
*943 FILLER_23_473
*944 FILLER_23_485
*945 FILLER_23_497
*946 FILLER_23_503
*947 FILLER_23_505
*948 FILLER_23_51
*949 FILLER_23_513
*950 FILLER_23_55
*951 FILLER_23_57
*952 FILLER_23_69
*953 FILLER_23_81
*954 FILLER_23_93
*955 FILLER_24_109
*956 FILLER_24_121
*957 FILLER_24_133
*958 FILLER_24_139
*959 FILLER_24_141
*960 FILLER_24_15
*961 FILLER_24_153
*962 FILLER_24_165
*963 FILLER_24_177
*964 FILLER_24_189
*965 FILLER_24_195
*966 FILLER_24_197
*967 FILLER_24_209
*968 FILLER_24_221
*969 FILLER_24_233
*970 FILLER_24_245
*971 FILLER_24_251
*972 FILLER_24_253
*973 FILLER_24_265
*974 FILLER_24_27
*975 FILLER_24_277
*976 FILLER_24_289
*977 FILLER_24_29
*978 FILLER_24_3
*979 FILLER_24_301
*980 FILLER_24_307
*981 FILLER_24_309
*982 FILLER_24_321
*983 FILLER_24_333
*984 FILLER_24_345
*985 FILLER_24_357
*986 FILLER_24_363
*987 FILLER_24_365
*988 FILLER_24_377
*989 FILLER_24_389
*990 FILLER_24_401
*991 FILLER_24_41
*992 FILLER_24_413
*993 FILLER_24_419
*994 FILLER_24_421
*995 FILLER_24_433
*996 FILLER_24_445
*997 FILLER_24_457
*998 FILLER_24_469
*999 FILLER_24_475
*1000 FILLER_24_477
*1001 FILLER_24_489
*1002 FILLER_24_501
*1003 FILLER_24_513
*1004 FILLER_24_53
*1005 FILLER_24_65
*1006 FILLER_24_77
*1007 FILLER_24_83
*1008 FILLER_24_85
*1009 FILLER_24_97
*1010 FILLER_25_105
*1011 FILLER_25_111
*1012 FILLER_25_113
*1013 FILLER_25_125
*1014 FILLER_25_137
*1015 FILLER_25_149
*1016 FILLER_25_15
*1017 FILLER_25_161
*1018 FILLER_25_167
*1019 FILLER_25_169
*1020 FILLER_25_181
*1021 FILLER_25_193
*1022 FILLER_25_205
*1023 FILLER_25_217
*1024 FILLER_25_223
*1025 FILLER_25_225
*1026 FILLER_25_237
*1027 FILLER_25_249
*1028 FILLER_25_261
*1029 FILLER_25_27
*1030 FILLER_25_273
*1031 FILLER_25_279
*1032 FILLER_25_281
*1033 FILLER_25_293
*1034 FILLER_25_3
*1035 FILLER_25_305
*1036 FILLER_25_317
*1037 FILLER_25_329
*1038 FILLER_25_335
*1039 FILLER_25_337
*1040 FILLER_25_349
*1041 FILLER_25_361
*1042 FILLER_25_373
*1043 FILLER_25_385
*1044 FILLER_25_39
*1045 FILLER_25_391
*1046 FILLER_25_393
*1047 FILLER_25_405
*1048 FILLER_25_417
*1049 FILLER_25_429
*1050 FILLER_25_441
*1051 FILLER_25_447
*1052 FILLER_25_449
*1053 FILLER_25_461
*1054 FILLER_25_473
*1055 FILLER_25_485
*1056 FILLER_25_497
*1057 FILLER_25_503
*1058 FILLER_25_505
*1059 FILLER_25_51
*1060 FILLER_25_513
*1061 FILLER_25_55
*1062 FILLER_25_57
*1063 FILLER_25_69
*1064 FILLER_25_81
*1065 FILLER_25_93
*1066 FILLER_26_109
*1067 FILLER_26_121
*1068 FILLER_26_133
*1069 FILLER_26_139
*1070 FILLER_26_141
*1071 FILLER_26_15
*1072 FILLER_26_153
*1073 FILLER_26_165
*1074 FILLER_26_177
*1075 FILLER_26_189
*1076 FILLER_26_195
*1077 FILLER_26_197
*1078 FILLER_26_209
*1079 FILLER_26_221
*1080 FILLER_26_233
*1081 FILLER_26_245
*1082 FILLER_26_251
*1083 FILLER_26_253
*1084 FILLER_26_265
*1085 FILLER_26_27
*1086 FILLER_26_277
*1087 FILLER_26_289
*1088 FILLER_26_29
*1089 FILLER_26_3
*1090 FILLER_26_301
*1091 FILLER_26_307
*1092 FILLER_26_309
*1093 FILLER_26_321
*1094 FILLER_26_333
*1095 FILLER_26_345
*1096 FILLER_26_357
*1097 FILLER_26_363
*1098 FILLER_26_365
*1099 FILLER_26_377
*1100 FILLER_26_389
*1101 FILLER_26_401
*1102 FILLER_26_41
*1103 FILLER_26_413
*1104 FILLER_26_419
*1105 FILLER_26_421
*1106 FILLER_26_433
*1107 FILLER_26_445
*1108 FILLER_26_457
*1109 FILLER_26_469
*1110 FILLER_26_475
*1111 FILLER_26_477
*1112 FILLER_26_489
*1113 FILLER_26_501
*1114 FILLER_26_513
*1115 FILLER_26_53
*1116 FILLER_26_65
*1117 FILLER_26_77
*1118 FILLER_26_83
*1119 FILLER_26_85
*1120 FILLER_26_97
*1121 FILLER_27_105
*1122 FILLER_27_111
*1123 FILLER_27_113
*1124 FILLER_27_125
*1125 FILLER_27_137
*1126 FILLER_27_149
*1127 FILLER_27_15
*1128 FILLER_27_161
*1129 FILLER_27_167
*1130 FILLER_27_169
*1131 FILLER_27_181
*1132 FILLER_27_193
*1133 FILLER_27_205
*1134 FILLER_27_217
*1135 FILLER_27_223
*1136 FILLER_27_225
*1137 FILLER_27_237
*1138 FILLER_27_249
*1139 FILLER_27_261
*1140 FILLER_27_27
*1141 FILLER_27_273
*1142 FILLER_27_279
*1143 FILLER_27_281
*1144 FILLER_27_293
*1145 FILLER_27_3
*1146 FILLER_27_305
*1147 FILLER_27_317
*1148 FILLER_27_329
*1149 FILLER_27_335
*1150 FILLER_27_337
*1151 FILLER_27_349
*1152 FILLER_27_361
*1153 FILLER_27_373
*1154 FILLER_27_385
*1155 FILLER_27_39
*1156 FILLER_27_391
*1157 FILLER_27_393
*1158 FILLER_27_405
*1159 FILLER_27_417
*1160 FILLER_27_429
*1161 FILLER_27_441
*1162 FILLER_27_447
*1163 FILLER_27_449
*1164 FILLER_27_461
*1165 FILLER_27_473
*1166 FILLER_27_485
*1167 FILLER_27_497
*1168 FILLER_27_503
*1169 FILLER_27_505
*1170 FILLER_27_51
*1171 FILLER_27_513
*1172 FILLER_27_55
*1173 FILLER_27_57
*1174 FILLER_27_69
*1175 FILLER_27_81
*1176 FILLER_27_93
*1177 FILLER_28_109
*1178 FILLER_28_121
*1179 FILLER_28_133
*1180 FILLER_28_139
*1181 FILLER_28_141
*1182 FILLER_28_15
*1183 FILLER_28_153
*1184 FILLER_28_165
*1185 FILLER_28_177
*1186 FILLER_28_189
*1187 FILLER_28_195
*1188 FILLER_28_197
*1189 FILLER_28_209
*1190 FILLER_28_221
*1191 FILLER_28_233
*1192 FILLER_28_245
*1193 FILLER_28_251
*1194 FILLER_28_253
*1195 FILLER_28_265
*1196 FILLER_28_27
*1197 FILLER_28_277
*1198 FILLER_28_289
*1199 FILLER_28_29
*1200 FILLER_28_3
*1201 FILLER_28_301
*1202 FILLER_28_307
*1203 FILLER_28_309
*1204 FILLER_28_321
*1205 FILLER_28_333
*1206 FILLER_28_345
*1207 FILLER_28_357
*1208 FILLER_28_363
*1209 FILLER_28_365
*1210 FILLER_28_377
*1211 FILLER_28_389
*1212 FILLER_28_401
*1213 FILLER_28_41
*1214 FILLER_28_413
*1215 FILLER_28_419
*1216 FILLER_28_421
*1217 FILLER_28_433
*1218 FILLER_28_445
*1219 FILLER_28_457
*1220 FILLER_28_469
*1221 FILLER_28_475
*1222 FILLER_28_477
*1223 FILLER_28_489
*1224 FILLER_28_501
*1225 FILLER_28_513
*1226 FILLER_28_53
*1227 FILLER_28_65
*1228 FILLER_28_77
*1229 FILLER_28_83
*1230 FILLER_28_85
*1231 FILLER_28_97
*1232 FILLER_29_105
*1233 FILLER_29_111
*1234 FILLER_29_113
*1235 FILLER_29_125
*1236 FILLER_29_137
*1237 FILLER_29_149
*1238 FILLER_29_15
*1239 FILLER_29_161
*1240 FILLER_29_167
*1241 FILLER_29_169
*1242 FILLER_29_181
*1243 FILLER_29_193
*1244 FILLER_29_205
*1245 FILLER_29_217
*1246 FILLER_29_223
*1247 FILLER_29_225
*1248 FILLER_29_237
*1249 FILLER_29_249
*1250 FILLER_29_261
*1251 FILLER_29_27
*1252 FILLER_29_273
*1253 FILLER_29_279
*1254 FILLER_29_281
*1255 FILLER_29_293
*1256 FILLER_29_3
*1257 FILLER_29_305
*1258 FILLER_29_317
*1259 FILLER_29_329
*1260 FILLER_29_335
*1261 FILLER_29_337
*1262 FILLER_29_349
*1263 FILLER_29_361
*1264 FILLER_29_373
*1265 FILLER_29_385
*1266 FILLER_29_39
*1267 FILLER_29_391
*1268 FILLER_29_393
*1269 FILLER_29_405
*1270 FILLER_29_417
*1271 FILLER_29_429
*1272 FILLER_29_441
*1273 FILLER_29_447
*1274 FILLER_29_449
*1275 FILLER_29_461
*1276 FILLER_29_473
*1277 FILLER_29_485
*1278 FILLER_29_497
*1279 FILLER_29_503
*1280 FILLER_29_505
*1281 FILLER_29_51
*1282 FILLER_29_513
*1283 FILLER_29_55
*1284 FILLER_29_57
*1285 FILLER_29_69
*1286 FILLER_29_81
*1287 FILLER_29_93
*1288 FILLER_2_109
*1289 FILLER_2_121
*1290 FILLER_2_133
*1291 FILLER_2_139
*1292 FILLER_2_141
*1293 FILLER_2_15
*1294 FILLER_2_153
*1295 FILLER_2_165
*1296 FILLER_2_177
*1297 FILLER_2_189
*1298 FILLER_2_195
*1299 FILLER_2_197
*1300 FILLER_2_209
*1301 FILLER_2_221
*1302 FILLER_2_233
*1303 FILLER_2_245
*1304 FILLER_2_251
*1305 FILLER_2_253
*1306 FILLER_2_265
*1307 FILLER_2_27
*1308 FILLER_2_277
*1309 FILLER_2_289
*1310 FILLER_2_29
*1311 FILLER_2_3
*1312 FILLER_2_301
*1313 FILLER_2_307
*1314 FILLER_2_309
*1315 FILLER_2_321
*1316 FILLER_2_333
*1317 FILLER_2_345
*1318 FILLER_2_357
*1319 FILLER_2_363
*1320 FILLER_2_365
*1321 FILLER_2_377
*1322 FILLER_2_389
*1323 FILLER_2_401
*1324 FILLER_2_41
*1325 FILLER_2_413
*1326 FILLER_2_419
*1327 FILLER_2_421
*1328 FILLER_2_433
*1329 FILLER_2_445
*1330 FILLER_2_457
*1331 FILLER_2_469
*1332 FILLER_2_475
*1333 FILLER_2_477
*1334 FILLER_2_489
*1335 FILLER_2_501
*1336 FILLER_2_513
*1337 FILLER_2_53
*1338 FILLER_2_65
*1339 FILLER_2_77
*1340 FILLER_2_83
*1341 FILLER_2_85
*1342 FILLER_2_97
*1343 FILLER_30_109
*1344 FILLER_30_121
*1345 FILLER_30_133
*1346 FILLER_30_139
*1347 FILLER_30_141
*1348 FILLER_30_15
*1349 FILLER_30_153
*1350 FILLER_30_165
*1351 FILLER_30_177
*1352 FILLER_30_189
*1353 FILLER_30_195
*1354 FILLER_30_197
*1355 FILLER_30_209
*1356 FILLER_30_221
*1357 FILLER_30_233
*1358 FILLER_30_245
*1359 FILLER_30_251
*1360 FILLER_30_253
*1361 FILLER_30_265
*1362 FILLER_30_27
*1363 FILLER_30_277
*1364 FILLER_30_289
*1365 FILLER_30_29
*1366 FILLER_30_3
*1367 FILLER_30_301
*1368 FILLER_30_307
*1369 FILLER_30_309
*1370 FILLER_30_321
*1371 FILLER_30_333
*1372 FILLER_30_345
*1373 FILLER_30_357
*1374 FILLER_30_363
*1375 FILLER_30_365
*1376 FILLER_30_377
*1377 FILLER_30_389
*1378 FILLER_30_401
*1379 FILLER_30_41
*1380 FILLER_30_413
*1381 FILLER_30_419
*1382 FILLER_30_421
*1383 FILLER_30_433
*1384 FILLER_30_445
*1385 FILLER_30_457
*1386 FILLER_30_469
*1387 FILLER_30_475
*1388 FILLER_30_477
*1389 FILLER_30_489
*1390 FILLER_30_501
*1391 FILLER_30_513
*1392 FILLER_30_53
*1393 FILLER_30_65
*1394 FILLER_30_77
*1395 FILLER_30_83
*1396 FILLER_30_85
*1397 FILLER_30_97
*1398 FILLER_31_105
*1399 FILLER_31_111
*1400 FILLER_31_113
*1401 FILLER_31_125
*1402 FILLER_31_137
*1403 FILLER_31_149
*1404 FILLER_31_15
*1405 FILLER_31_161
*1406 FILLER_31_167
*1407 FILLER_31_169
*1408 FILLER_31_181
*1409 FILLER_31_193
*1410 FILLER_31_205
*1411 FILLER_31_217
*1412 FILLER_31_223
*1413 FILLER_31_225
*1414 FILLER_31_237
*1415 FILLER_31_249
*1416 FILLER_31_261
*1417 FILLER_31_27
*1418 FILLER_31_273
*1419 FILLER_31_279
*1420 FILLER_31_281
*1421 FILLER_31_293
*1422 FILLER_31_3
*1423 FILLER_31_305
*1424 FILLER_31_317
*1425 FILLER_31_329
*1426 FILLER_31_335
*1427 FILLER_31_337
*1428 FILLER_31_349
*1429 FILLER_31_361
*1430 FILLER_31_373
*1431 FILLER_31_385
*1432 FILLER_31_39
*1433 FILLER_31_391
*1434 FILLER_31_393
*1435 FILLER_31_405
*1436 FILLER_31_417
*1437 FILLER_31_429
*1438 FILLER_31_441
*1439 FILLER_31_447
*1440 FILLER_31_449
*1441 FILLER_31_461
*1442 FILLER_31_473
*1443 FILLER_31_485
*1444 FILLER_31_497
*1445 FILLER_31_503
*1446 FILLER_31_505
*1447 FILLER_31_51
*1448 FILLER_31_513
*1449 FILLER_31_55
*1450 FILLER_31_57
*1451 FILLER_31_69
*1452 FILLER_31_81
*1453 FILLER_31_93
*1454 FILLER_32_109
*1455 FILLER_32_121
*1456 FILLER_32_133
*1457 FILLER_32_139
*1458 FILLER_32_141
*1459 FILLER_32_15
*1460 FILLER_32_153
*1461 FILLER_32_165
*1462 FILLER_32_177
*1463 FILLER_32_189
*1464 FILLER_32_195
*1465 FILLER_32_197
*1466 FILLER_32_209
*1467 FILLER_32_221
*1468 FILLER_32_233
*1469 FILLER_32_245
*1470 FILLER_32_251
*1471 FILLER_32_253
*1472 FILLER_32_265
*1473 FILLER_32_27
*1474 FILLER_32_277
*1475 FILLER_32_289
*1476 FILLER_32_29
*1477 FILLER_32_3
*1478 FILLER_32_301
*1479 FILLER_32_307
*1480 FILLER_32_309
*1481 FILLER_32_321
*1482 FILLER_32_333
*1483 FILLER_32_345
*1484 FILLER_32_357
*1485 FILLER_32_363
*1486 FILLER_32_365
*1487 FILLER_32_377
*1488 FILLER_32_389
*1489 FILLER_32_401
*1490 FILLER_32_41
*1491 FILLER_32_413
*1492 FILLER_32_419
*1493 FILLER_32_421
*1494 FILLER_32_433
*1495 FILLER_32_445
*1496 FILLER_32_457
*1497 FILLER_32_469
*1498 FILLER_32_475
*1499 FILLER_32_477
*1500 FILLER_32_489
*1501 FILLER_32_501
*1502 FILLER_32_513
*1503 FILLER_32_53
*1504 FILLER_32_65
*1505 FILLER_32_77
*1506 FILLER_32_83
*1507 FILLER_32_85
*1508 FILLER_32_97
*1509 FILLER_33_105
*1510 FILLER_33_111
*1511 FILLER_33_113
*1512 FILLER_33_125
*1513 FILLER_33_137
*1514 FILLER_33_149
*1515 FILLER_33_15
*1516 FILLER_33_161
*1517 FILLER_33_167
*1518 FILLER_33_169
*1519 FILLER_33_181
*1520 FILLER_33_193
*1521 FILLER_33_205
*1522 FILLER_33_217
*1523 FILLER_33_223
*1524 FILLER_33_225
*1525 FILLER_33_237
*1526 FILLER_33_249
*1527 FILLER_33_261
*1528 FILLER_33_27
*1529 FILLER_33_273
*1530 FILLER_33_279
*1531 FILLER_33_281
*1532 FILLER_33_293
*1533 FILLER_33_3
*1534 FILLER_33_305
*1535 FILLER_33_317
*1536 FILLER_33_329
*1537 FILLER_33_335
*1538 FILLER_33_337
*1539 FILLER_33_349
*1540 FILLER_33_361
*1541 FILLER_33_373
*1542 FILLER_33_385
*1543 FILLER_33_39
*1544 FILLER_33_391
*1545 FILLER_33_393
*1546 FILLER_33_405
*1547 FILLER_33_417
*1548 FILLER_33_429
*1549 FILLER_33_441
*1550 FILLER_33_447
*1551 FILLER_33_449
*1552 FILLER_33_461
*1553 FILLER_33_473
*1554 FILLER_33_485
*1555 FILLER_33_497
*1556 FILLER_33_503
*1557 FILLER_33_505
*1558 FILLER_33_51
*1559 FILLER_33_513
*1560 FILLER_33_55
*1561 FILLER_33_57
*1562 FILLER_33_69
*1563 FILLER_33_81
*1564 FILLER_33_93
*1565 FILLER_34_109
*1566 FILLER_34_121
*1567 FILLER_34_133
*1568 FILLER_34_139
*1569 FILLER_34_141
*1570 FILLER_34_15
*1571 FILLER_34_153
*1572 FILLER_34_165
*1573 FILLER_34_177
*1574 FILLER_34_189
*1575 FILLER_34_195
*1576 FILLER_34_197
*1577 FILLER_34_209
*1578 FILLER_34_221
*1579 FILLER_34_233
*1580 FILLER_34_245
*1581 FILLER_34_251
*1582 FILLER_34_253
*1583 FILLER_34_265
*1584 FILLER_34_27