*SPEF "ieee 1481-1999"
*DESIGN "spi_register"
*DATE "11:11:11 Fri 11 11, 1111"
*VENDOR "OpenRCX"
*PROGRAM "Parallel Extraction"
*VERSION "1.0"
*DESIGN_FLOW "NAME_SCOPE LOCAL" "PIN_CAP NONE"
*DIVIDER /
*DELIMITER :
*BUS_DELIMITER []
*T_UNIT 1 NS
*C_UNIT 1 PF
*R_UNIT 1 OHM
*L_UNIT 1 HENRY

*NAME_MAP
*1 reg_addr[0]
*2 reg_addr[1]
*3 reg_addr[2]
*4 reg_bus
*5 reg_clk
*6 reg_data[0]
*7 reg_data[1]
*8 reg_data[2]
*9 reg_data[3]
*10 reg_data[4]
*11 reg_data[5]
*12 reg_data[6]
*13 reg_data[7]
*14 reg_dir
*17 _00_
*18 _01_
*19 _02_
*20 _03_
*21 _04_
*22 _05_
*23 _06_
*24 _07_
*25 _08_
*26 _09_
*27 _10_
*28 _11_
*29 _12_
*30 _13_
*31 _14_
*32 _15_
*33 _16_
*34 _17_
*35 _18_
*36 _19_
*37 _20_
*38 _21_
*39 _22_
*40 _23_
*41 _24_
*42 _25_
*43 _26_
*44 _27_
*45 _28_
*46 _29_
*47 _30_
*48 _31_
*49 _32_
*50 clknet_0_reg_clk
*51 clknet_1_0__leaf_reg_clk
*52 clknet_1_1__leaf_reg_clk
*53 net1
*54 net10
*55 net11
*56 net12
*57 net2
*58 net3
*59 net4
*60 net5
*61 net6
*62 net7
*63 net8
*64 net9
*65 t\[0\]
*66 t\[1\]
*67 t\[2\]
*68 ANTENNA__59__C
*69 ANTENNA_clkbuf_0_reg_clk_A
*70 ANTENNA_input1_A
*71 ANTENNA_input2_A
*72 ANTENNA_input3_A
*73 ANTENNA_input4_A
*74 ANTENNA_output5_A
*75 FILLER_0_105
*76 FILLER_0_111
*77 FILLER_0_113
*78 FILLER_0_118
*79 FILLER_0_138
*80 FILLER_0_141
*81 FILLER_0_145
*82 FILLER_0_15
*83 FILLER_0_166
*84 FILLER_0_27
*85 FILLER_0_29
*86 FILLER_0_3
*87 FILLER_0_37
*88 FILLER_0_41
*89 FILLER_0_47
*90 FILLER_0_55
*91 FILLER_0_57
*92 FILLER_0_63
*93 FILLER_0_70
*94 FILLER_0_80
*95 FILLER_0_85
*96 FILLER_0_9
*97 FILLER_0_90
*98 FILLER_0_94
*99 FILLER_0_98
*100 FILLER_10_109
*101 FILLER_10_121
*102 FILLER_10_133
*103 FILLER_10_139
*104 FILLER_10_141
*105 FILLER_10_15
*106 FILLER_10_153
*107 FILLER_10_165
*108 FILLER_10_27
*109 FILLER_10_29
*110 FILLER_10_3
*111 FILLER_10_41
*112 FILLER_10_53
*113 FILLER_10_65
*114 FILLER_10_77
*115 FILLER_10_83
*116 FILLER_10_85
*117 FILLER_10_97
*118 FILLER_11_105
*119 FILLER_11_111
*120 FILLER_11_113
*121 FILLER_11_125
*122 FILLER_11_137
*123 FILLER_11_149
*124 FILLER_11_15
*125 FILLER_11_161
*126 FILLER_11_167
*127 FILLER_11_27
*128 FILLER_11_3
*129 FILLER_11_39
*130 FILLER_11_51
*131 FILLER_11_55
*132 FILLER_11_57
*133 FILLER_11_69
*134 FILLER_11_81
*135 FILLER_11_93
*136 FILLER_12_109
*137 FILLER_12_121
*138 FILLER_12_133
*139 FILLER_12_139
*140 FILLER_12_141
*141 FILLER_12_15
*142 FILLER_12_153
*143 FILLER_12_165
*144 FILLER_12_27
*145 FILLER_12_29
*146 FILLER_12_3
*147 FILLER_12_41
*148 FILLER_12_53
*149 FILLER_12_65
*150 FILLER_12_77
*151 FILLER_12_83
*152 FILLER_12_85
*153 FILLER_12_97
*154 FILLER_13_105
*155 FILLER_13_111
*156 FILLER_13_113
*157 FILLER_13_125
*158 FILLER_13_137
*159 FILLER_13_149
*160 FILLER_13_15
*161 FILLER_13_161
*162 FILLER_13_167
*163 FILLER_13_27
*164 FILLER_13_3
*165 FILLER_13_39
*166 FILLER_13_51
*167 FILLER_13_55
*168 FILLER_13_57
*169 FILLER_13_69
*170 FILLER_13_81
*171 FILLER_13_93
*172 FILLER_14_109
*173 FILLER_14_121
*174 FILLER_14_133
*175 FILLER_14_139
*176 FILLER_14_141
*177 FILLER_14_15
*178 FILLER_14_153
*179 FILLER_14_165
*180 FILLER_14_27
*181 FILLER_14_29
*182 FILLER_14_3
*183 FILLER_14_41
*184 FILLER_14_53
*185 FILLER_14_65
*186 FILLER_14_77
*187 FILLER_14_83
*188 FILLER_14_85
*189 FILLER_14_97
*190 FILLER_15_105
*191 FILLER_15_111
*192 FILLER_15_113
*193 FILLER_15_125
*194 FILLER_15_137
*195 FILLER_15_149
*196 FILLER_15_15
*197 FILLER_15_161
*198 FILLER_15_167
*199 FILLER_15_27
*200 FILLER_15_3
*201 FILLER_15_39
*202 FILLER_15_51
*203 FILLER_15_55
*204 FILLER_15_57
*205 FILLER_15_69
*206 FILLER_15_81
*207 FILLER_15_93
*208 FILLER_16_109
*209 FILLER_16_121
*210 FILLER_16_133
*211 FILLER_16_139
*212 FILLER_16_141
*213 FILLER_16_15
*214 FILLER_16_153
*215 FILLER_16_165
*216 FILLER_16_27
*217 FILLER_16_29
*218 FILLER_16_3
*219 FILLER_16_41
*220 FILLER_16_53
*221 FILLER_16_65
*222 FILLER_16_77
*223 FILLER_16_83
*224 FILLER_16_85
*225 FILLER_16_97
*226 FILLER_17_105
*227 FILLER_17_111
*228 FILLER_17_113
*229 FILLER_17_125
*230 FILLER_17_137
*231 FILLER_17_149
*232 FILLER_17_15
*233 FILLER_17_161
*234 FILLER_17_167
*235 FILLER_17_27
*236 FILLER_17_3
*237 FILLER_17_39
*238 FILLER_17_51
*239 FILLER_17_55
*240 FILLER_17_57
*241 FILLER_17_69
*242 FILLER_17_81
*243 FILLER_17_93
*244 FILLER_18_109
*245 FILLER_18_121
*246 FILLER_18_133
*247 FILLER_18_139
*248 FILLER_18_141
*249 FILLER_18_15
*250 FILLER_18_153
*251 FILLER_18_165
*252 FILLER_18_27
*253 FILLER_18_29
*254 FILLER_18_3
*255 FILLER_18_41
*256 FILLER_18_53
*257 FILLER_18_65
*258 FILLER_18_77
*259 FILLER_18_83
*260 FILLER_18_85
*261 FILLER_18_97
*262 FILLER_19_105
*263 FILLER_19_111
*264 FILLER_19_113
*265 FILLER_19_125
*266 FILLER_19_137
*267 FILLER_19_149
*268 FILLER_19_15
*269 FILLER_19_161
*270 FILLER_19_167
*271 FILLER_19_27
*272 FILLER_19_3
*273 FILLER_19_39
*274 FILLER_19_51
*275 FILLER_19_55
*276 FILLER_19_57
*277 FILLER_19_69
*278 FILLER_19_81
*279 FILLER_19_93
*280 FILLER_1_105
*281 FILLER_1_111
*282 FILLER_1_113
*283 FILLER_1_127
*284 FILLER_1_138
*285 FILLER_1_15
*286 FILLER_1_166
*287 FILLER_1_27
*288 FILLER_1_3
*289 FILLER_1_39
*290 FILLER_1_51
*291 FILLER_1_55
*292 FILLER_1_57
*293 FILLER_1_69
*294 FILLER_1_80
*295 FILLER_1_88
*296 FILLER_20_109
*297 FILLER_20_121
*298 FILLER_20_133
*299 FILLER_20_139
*300 FILLER_20_141
*301 FILLER_20_15
*302 FILLER_20_153
*303 FILLER_20_165
*304 FILLER_20_27
*305 FILLER_20_29
*306 FILLER_20_3
*307 FILLER_20_41
*308 FILLER_20_53
*309 FILLER_20_65
*310 FILLER_20_77
*311 FILLER_20_83
*312 FILLER_20_85
*313 FILLER_20_97
*314 FILLER_21_105
*315 FILLER_21_111
*316 FILLER_21_113
*317 FILLER_21_125
*318 FILLER_21_137
*319 FILLER_21_149
*320 FILLER_21_15
*321 FILLER_21_161
*322 FILLER_21_167
*323 FILLER_21_27
*324 FILLER_21_3
*325 FILLER_21_39
*326 FILLER_21_51
*327 FILLER_21_55
*328 FILLER_21_57
*329 FILLER_21_69
*330 FILLER_21_81
*331 FILLER_21_93
*332 FILLER_22_109
*333 FILLER_22_121
*334 FILLER_22_133
*335 FILLER_22_139
*336 FILLER_22_141
*337 FILLER_22_15
*338 FILLER_22_153
*339 FILLER_22_165
*340 FILLER_22_27
*341 FILLER_22_29
*342 FILLER_22_3
*343 FILLER_22_41
*344 FILLER_22_53
*345 FILLER_22_65
*346 FILLER_22_77
*347 FILLER_22_83
*348 FILLER_22_85
*349 FILLER_22_97
*350 FILLER_23_105
*351 FILLER_23_111
*352 FILLER_23_113
*353 FILLER_23_125
*354 FILLER_23_137
*355 FILLER_23_149
*356 FILLER_23_15
*357 FILLER_23_161
*358 FILLER_23_167
*359 FILLER_23_27
*360 FILLER_23_3
*361 FILLER_23_39
*362 FILLER_23_51
*363 FILLER_23_55
*364 FILLER_23_57
*365 FILLER_23_69
*366 FILLER_23_81
*367 FILLER_23_93
*368 FILLER_24_102
*369 FILLER_24_110
*370 FILLER_24_113
*371 FILLER_24_121
*372 FILLER_24_126
*373 FILLER_24_138
*374 FILLER_24_141
*375 FILLER_24_145
*376 FILLER_24_15
*377 FILLER_24_150
*378 FILLER_24_166
*379 FILLER_24_27
*380 FILLER_24_29
*381 FILLER_24_3
*382 FILLER_24_35
*383 FILLER_24_47
*384 FILLER_24_54
*385 FILLER_24_57
*386 FILLER_24_69
*387 FILLER_24_73
*388 FILLER_24_78
*389 FILLER_24_85
*390 FILLER_24_9
*391 FILLER_24_97
*392 FILLER_2_101
*393 FILLER_2_108
*394 FILLER_2_118
*395 FILLER_2_125
*396 FILLER_2_132
*397 FILLER_2_141
*398 FILLER_2_145
*399 FILLER_2_15
*400 FILLER_2_166
*401 FILLER_2_27
*402 FILLER_2_29
*403 FILLER_2_3
*404 FILLER_2_41
*405 FILLER_2_53
*406 FILLER_2_65
*407 FILLER_2_77
*408 FILLER_2_83
*409 FILLER_2_85
*410 FILLER_2_97
*411 FILLER_3_107
*412 FILLER_3_111
*413 FILLER_3_113
*414 FILLER_3_117
*415 FILLER_3_124
*416 FILLER_3_134
*417 FILLER_3_140
*418 FILLER_3_146
*419 FILLER_3_15
*420 FILLER_3_166
*421 FILLER_3_27
*422 FILLER_3_3
*423 FILLER_3_39
*424 FILLER_3_51
*425 FILLER_3_55
*426 FILLER_3_57
*427 FILLER_3_69
*428 FILLER_3_77
*429 FILLER_3_82
*430 FILLER_3_91
*431 FILLER_3_99
*432 FILLER_4_107
*433 FILLER_4_116
*434 FILLER_4_125
*435 FILLER_4_134
*436 FILLER_4_141
*437 FILLER_4_15
*438 FILLER_4_155
*439 FILLER_4_162
*440 FILLER_4_27
*441 FILLER_4_29
*442 FILLER_4_3
*443 FILLER_4_41
*444 FILLER_4_53
*445 FILLER_4_65
*446 FILLER_4_82
*447 FILLER_4_85
*448 FILLER_4_94
*449 FILLER_5_104
*450 FILLER_5_113
*451 FILLER_5_120
*452 FILLER_5_129
*453 FILLER_5_138
*454 FILLER_5_15
*455 FILLER_5_166
*456 FILLER_5_27
*457 FILLER_5_3
*458 FILLER_5_39
*459 FILLER_5_51
*460 FILLER_5_55
*461 FILLER_5_57
*462 FILLER_5_69
*463 FILLER_5_77
*464 FILLER_5_92
*465 FILLER_6_105
*466 FILLER_6_112
*467 FILLER_6_121
*468 FILLER_6_128
*469 FILLER_6_135
*470 FILLER_6_139
*471 FILLER_6_141
*472 FILLER_6_15
*473 FILLER_6_164
*474 FILLER_6_27
*475 FILLER_6_29
*476 FILLER_6_3
*477 FILLER_6_41
*478 FILLER_6_53
*479 FILLER_6_65
*480 FILLER_6_77
*481 FILLER_6_83
*482 FILLER_6_85
*483 FILLER_6_99
*484 FILLER_7_107
*485 FILLER_7_111
*486 FILLER_7_113
*487 FILLER_7_127
*488 FILLER_7_131
*489 FILLER_7_144
*490 FILLER_7_15
*491 FILLER_7_156
*492 FILLER_7_27
*493 FILLER_7_3
*494 FILLER_7_39
*495 FILLER_7_51
*496 FILLER_7_55
*497 FILLER_7_57
*498 FILLER_7_69
*499 FILLER_7_81
*500 FILLER_7_90
*501 FILLER_7_94
*502 FILLER_8_101
*503 FILLER_8_113
*504 FILLER_8_137
*505 FILLER_8_141
*506 FILLER_8_15
*507 FILLER_8_153
*508 FILLER_8_165
*509 FILLER_8_27
*510 FILLER_8_29
*511 FILLER_8_3
*512 FILLER_8_41
*513 FILLER_8_53
*514 FILLER_8_65
*515 FILLER_8_77
*516 FILLER_8_83
*517 FILLER_8_85
*518 FILLER_8_97
*519 FILLER_9_105
*520 FILLER_9_111
*521 FILLER_9_113
*522 FILLER_9_125
*523 FILLER_9_137
*524 FILLER_9_149
*525 FILLER_9_15
*526 FILLER_9_161
*527 FILLER_9_167
*528 FILLER_9_27
*529 FILLER_9_3
*530 FILLER_9_39
*531 FILLER_9_51
*532 FILLER_9_55
*533 FILLER_9_57
*534 FILLER_9_69
*535 FILLER_9_81
*536 FILLER_9_93
*537 PHY_0
*538 PHY_1
*539 PHY_10
*540 PHY_11
*541 PHY_12
*542 PHY_13
*543 PHY_14
*544 PHY_15
*545 PHY_16
*546 PHY_17
*547 PHY_18
*548 PHY_19
*549 PHY_2
*550 PHY_20
*551 PHY_21
*552 PHY_22
*553 PHY_23
*554 PHY_24
*555 PHY_25
*556 PHY_26
*557 PHY_27
*558 PHY_28
*559 PHY_29
*560 PHY_3
*561 PHY_30
*562 PHY_31
*563 PHY_32
*564 PHY_33
*565 PHY_34
*566 PHY_35
*567 PHY_36
*568 PHY_37
*569 PHY_38
*570 PHY_39
*571 PHY_4
*572 PHY_40
*573 PHY_41
*574 PHY_42
*575 PHY_43
*576 PHY_44
*577 PHY_45
*578 PHY_46
*579 PHY_47
*580 PHY_48
*581 PHY_49
*582 PHY_5
*583 PHY_6
*584 PHY_7
*585 PHY_8
*586 PHY_9
*587 TAP_100
*588 TAP_101
*589 TAP_102
*590 TAP_103
*591 TAP_104
*592 TAP_105
*593 TAP_106
*594 TAP_107
*595 TAP_108
*596 TAP_109
*597 TAP_110
*598 TAP_111
*599 TAP_112
*600 TAP_113
*601 TAP_114
*602 TAP_115
*603 TAP_116
*604 TAP_50
*605 TAP_51
*606 TAP_52
*607 TAP_53
*608 TAP_54
*609 TAP_55
*610 TAP_56
*611 TAP_57
*612 TAP_58
*613 TAP_59
*614 TAP_60
*615 TAP_61
*616 TAP_62
*617 TAP_63
*618 TAP_64
*619 TAP_65
*620 TAP_66
*621 TAP_67
*622 TAP_68
*623 TAP_69
*624 TAP_70
*625 TAP_71
*626 TAP_72
*627 TAP_73
*628 TAP_74
*629 TAP_75
*630 TAP_76
*631 TAP_77
*632 TAP_78
*633 TAP_79
*634 TAP_80
*635 TAP_81
*636 TAP_82
*637 TAP_83
*638 TAP_84
*639 TAP_85
*640 TAP_86
*641 TAP_87
*642 TAP_88
*643 TAP_89
*644 TAP_90
*645 TAP_91
*646 TAP_92
*647 TAP_93
*648 TAP_94
*649 TAP_95
*650 TAP_96
*651 TAP_97
*652 TAP_98
*653 TAP_99
*654 _33_
*655 _34_
*656 _35_
*657 _36_
*658 _37_
*659 _38_
*660 _39_
*661 _40_
*662 _41_
*663 _42_
*664 _43_
*665 _44_
*666 _45_
*667 _46_
*668 _47_
*669 _48_
*670 _49_
*671 _50_
*672 _51_
*673 _52_
*674 _53_
*675 _54_
*676 _55_
*677 _56_
*678 _57_
*679 _58_
*680 _59_
*681 _60_
*682 _61_
*683 _62_
*684 _63_
*685 _64_
*686 _65_
*687 _66_
*688 _67_
*689 _68_
*690 _69_
*691 _70_
*692 _71_
*693 _72_
*694 _73_
*695 _74_
*696 _75_
*697 _76_
*698 _77_
*699 clkbuf_0_reg_clk
*700 clkbuf_1_0__f_reg_clk
*701 clkbuf_1_1__f_reg_clk
*702 input1
*703 input2
*704 input3
*705 input4
*706 output10
*707 output11
*708 output12
*709 output5
*710 output6
*711 output7
*712 output8
*713 output9

*PORTS
reg_addr[0] I
reg_addr[1] I
reg_addr[2] I
reg_bus I
reg_clk I
reg_data[0] O
reg_data[1] O
reg_data[2] O
reg_data[3] O
reg_data[4] O
reg_data[5] O
reg_data[6] O
reg_data[7] O
reg_dir I

*D_NET *1 0.00135608
*CONN
*P reg_addr[0] I
*I *70:DIODE I *D sky130_fd_sc_hd__diode_2
*I *702:A I *D sky130_fd_sc_hd__clkbuf_1
*CAP
1 reg_addr[0] 0.000421441
2 *70:DIODE 7.24315e-05
3 *702:A 0
4 *1:8 0.000493872
5 *70:DIODE *53:7 0.000230155
6 *70:DIODE *59:5 0.000118887
7 *1:8 *59:5 1.92905e-05
*RES
1 reg_addr[0] *1:8 12.5357 
2 *1:8 *702:A 9.3 
3 *1:8 *70:DIODE 12.3 
*END

*D_NET *2 0.00135804
*CONN
*P reg_addr[1] I
*I *703:A I *D sky130_fd_sc_hd__clkbuf_1
*I *71:DIODE I *D sky130_fd_sc_hd__diode_2
*CAP
1 reg_addr[1] 0.000414329
2 *703:A 0
3 *71:DIODE 3.97014e-05
4 *2:8 0.000454031
5 *71:DIODE *53:7 0.000230855
6 *71:DIODE *59:5 8.70152e-05
7 *2:8 *654:C 9.69119e-06
8 *2:8 *53:7 8.57023e-05
9 *2:8 *59:5 3.67142e-05
*RES
1 reg_addr[1] *2:8 12.9464 
2 *2:8 *71:DIODE 11.4786 
3 *2:8 *703:A 9.3 
*END

*D_NET *3 0.0017708
*CONN
*P reg_addr[2] I
*I *72:DIODE I *D sky130_fd_sc_hd__diode_2
*I *704:A I *D sky130_fd_sc_hd__clkbuf_1
*CAP
1 reg_addr[2] 0.000397292
2 *72:DIODE 0.000270264
3 *704:A 2.56873e-05
4 *3:5 0.000693244
5 *72:DIODE *693:D 0
6 *72:DIODE *29:11 5.52238e-05
7 *72:DIODE *32:8 9.73841e-05
8 *704:A *658:B 0.00014258
9 *704:A *32:8 3.38936e-05
10 *704:A *58:11 5.52302e-05
*RES
1 reg_addr[2] *3:5 7.5 
2 *3:5 *704:A 15.1571 
3 *3:5 *72:DIODE 18.7107 
*END

*D_NET *4 0.0115926
*CONN
*P reg_bus I
*I *692:D I *D sky130_fd_sc_hd__dlxtn_1
*I *689:D I *D sky130_fd_sc_hd__dlxtn_1
*I *691:D I *D sky130_fd_sc_hd__dlxtn_1
*I *690:D I *D sky130_fd_sc_hd__dlxtn_1
*I *688:D I *D sky130_fd_sc_hd__dlxtn_1
*I *698:D I *D sky130_fd_sc_hd__dlxtn_1
*I *687:D I *D sky130_fd_sc_hd__dlxtn_1
*I *694:D I *D sky130_fd_sc_hd__dlxtn_1
*I *693:Q O *D sky130_fd_sc_hd__dlxtn_4
*CAP
1 reg_bus 0.000473949
2 *692:D 3.85687e-05
3 *689:D 0.000344569
4 *691:D 0
5 *690:D 0
6 *688:D 0
7 *698:D 0.000220023
8 *687:D 0
9 *694:D 0
10 *693:Q 0.000348788
11 *4:57 0.000602869
12 *4:46 0.00084816
13 *4:44 0.000852949
14 *4:42 0.000452805
15 *4:39 0.000992019
16 *4:29 0.00119714
17 *4:15 0.00139524
18 *4:5 0.000693778
19 reg_bus *696:D 9.34004e-05
20 *689:D *682:A0 0.00011891
21 *689:D *55:6 0
22 *689:D *64:17 5.83233e-05
23 *698:D *660:A 8.91726e-05
24 *698:D *679:A 5.66157e-05
25 *698:D *681:B2 0
26 *698:D *61:7 0.000167385
27 *4:5 *686:A 0.000185643
28 *4:15 *686:A 0.000362682
29 *4:29 *686:A 3.69047e-06
30 *4:29 *692:GATE_N 0.000164018
31 *4:29 *697:D 0.000106817
32 *4:29 *700:A 8.32242e-05
33 *4:29 *701:A 0.000516849
34 *4:39 *655:B_N 0.000227729
35 *4:39 *682:A0 9.7008e-05
36 *4:39 *682:S1 0.000266092
37 *4:39 *692:GATE_N 0
38 *4:39 *701:A 0
39 *4:39 *55:6 0
40 *4:44 *682:A1 6.28241e-05
41 *4:44 *54:5 8.35526e-05
42 *4:46 *681:A1 5.06983e-05
43 *4:46 *690:GATE_N 0.000186669
44 *4:46 *62:5 3.23672e-05
45 *4:57 *660:A 0.000118095
46 *4:57 *681:B2 0
47 *4:57 *687:GATE_N 0
48 *4:57 *63:17 0
*RES
1 *693:Q *4:5 15.175 
2 *4:5 *694:D 9.3 
3 *4:5 *4:15 7.14286 
4 *4:15 reg_bus 14.125 
5 *4:15 *4:29 21.7679 
6 *4:29 *4:39 16.6071 
7 *4:39 *4:42 5.44643 
8 *4:42 *4:44 7.10714 
9 *4:44 *4:46 8.33929 
10 *4:46 *687:D 9.3 
11 *4:46 *4:57 11.5 
12 *4:57 *698:D 19.05 
13 *4:57 *688:D 13.8 
14 *4:44 *690:D 9.3 
15 *4:42 *691:D 9.3 
16 *4:39 *689:D 19.8714 
17 *4:29 *692:D 9.83571 
*END

*D_NET *5 0.00282499
*CONN
*P reg_clk I
*I *69:DIODE I *D sky130_fd_sc_hd__diode_2
*I *699:A I *D sky130_fd_sc_hd__clkbuf_16
*CAP
1 reg_clk 0.000486687
2 *69:DIODE 0.000696656
3 *699:A 0
4 *5:5 0.00118334
5 *69:DIODE *672:A 3.28548e-05
6 *69:DIODE *695:CLK 0.000143831
7 *69:DIODE *695:D 9.82585e-06
8 *69:DIODE *65:8 9.38399e-05
9 *5:5 *695:CLK 0.000177948
*RES
1 reg_clk *5:5 10.2321 
2 *5:5 *699:A 13.8 
3 *5:5 *69:DIODE 24.7464 
*END

*D_NET *6 0.00114395
*CONN
*P reg_data[0] O
*I *709:X O *D sky130_fd_sc_hd__buf_2
*CAP
1 reg_data[0] 0.000571977
2 *709:X 0.000571977
*RES
1 *709:X reg_data[0] 23.4786 
*END

*D_NET *7 0.00128414
*CONN
*P reg_data[1] O
*I *710:X O *D sky130_fd_sc_hd__buf_2
*CAP
1 reg_data[1] 0.000642069
2 *710:X 0.000642069
*RES
1 *710:X reg_data[1] 24.3 
*END

*D_NET *8 0.000852287
*CONN
*P reg_data[2] O
*I *711:X O *D sky130_fd_sc_hd__buf_2
*CAP
1 reg_data[2] 0.000426144
2 *711:X 0.000426144
*RES
1 *711:X reg_data[2] 22.2464 
*END

*D_NET *9 0.000852287
*CONN
*P reg_data[3] O
*I *712:X O *D sky130_fd_sc_hd__buf_2
*CAP
1 reg_data[3] 0.000426144
2 *712:X 0.000426144
*RES
1 *712:X reg_data[3] 22.2464 
*END

*D_NET *10 0.000852287
*CONN
*P reg_data[4] O
*I *713:X O *D sky130_fd_sc_hd__buf_2
*CAP
1 reg_data[4] 0.000426144
2 *713:X 0.000426144
*RES
1 *713:X reg_data[4] 22.2464 
*END

*D_NET *11 0.00086452
*CONN
*P reg_data[5] O
*I *706:X O *D sky130_fd_sc_hd__buf_2
*CAP
1 reg_data[5] 0.00043226
2 *706:X 0.00043226
*RES
1 *706:X reg_data[5] 22.3714 
*END

*D_NET *12 0.000944785
*CONN
*P reg_data[6] O
*I *707:X O *D sky130_fd_sc_hd__buf_2
*CAP
1 reg_data[6] 0.000453542
2 *707:X 0.000453542
3 reg_data[6] *707:A 3.77021e-05
*RES
1 *707:X reg_data[6] 22.2464 
*END

*D_NET *13 0.00115379
*CONN
*P reg_data[7] O
*I *708:X O *D sky130_fd_sc_hd__buf_2
*CAP
1 reg_data[7] 0.000576893
2 *708:X 0.000576893
*RES
1 *708:X reg_data[7] 23.4786 
*END

*D_NET *14 0.00120785
*CONN
*P reg_dir I
*I *73:DIODE I *D sky130_fd_sc_hd__diode_2
*I *705:A I *D sky130_fd_sc_hd__clkbuf_1
*CAP
1 reg_dir 0.000421655
2 *73:DIODE 0.000136029
3 *705:A 0
4 *14:8 0.000557684
5 *73:DIODE *59:5 9.24825e-05
*RES
1 reg_dir *14:8 12.5357 
2 *14:8 *705:A 9.3 
3 *14:8 *73:DIODE 12.3 
*END

*D_NET *17 0.000303365
*CONN
*I *693:GATE_N I *D sky130_fd_sc_hd__dlxtn_4
*I *674:X O *D sky130_fd_sc_hd__clkbuf_1
*CAP
1 *693:GATE_N 0.000135749
2 *674:X 0.000135749
3 *693:GATE_N *58:11 3.18676e-05
*RES
1 *674:X *693:GATE_N 29.7786 
*END

*D_NET *18 0.000211455
*CONN
*I *694:GATE_N I *D sky130_fd_sc_hd__dlxtn_1
*I *676:X O *D sky130_fd_sc_hd__clkbuf_1
*CAP
1 *694:GATE_N 4.68367e-05
2 *676:X 4.68367e-05
3 *694:GATE_N *658:B 4.79842e-05
4 *694:GATE_N *676:A 6.97972e-05
*RES
1 *676:X *694:GATE_N 29.2429 
*END

*D_NET *19 0.000717325
*CONN
*I *698:GATE_N I *D sky130_fd_sc_hd__dlxtn_1
*I *678:X O *D sky130_fd_sc_hd__clkbuf_1
*CAP
1 *698:GATE_N 0.000218809
2 *678:X 0.000218809
3 *698:GATE_N *660:A 0
4 *698:GATE_N *677:B 0.000201347
5 *698:GATE_N *678:A 7.83587e-05
*RES
1 *678:X *698:GATE_N 32.2071 
*END

*D_NET *20 0.000463701
*CONN
*I *687:GATE_N I *D sky130_fd_sc_hd__dlxtn_1
*I *657:X O *D sky130_fd_sc_hd__clkbuf_1
*CAP
1 *687:GATE_N 0.000210565
2 *657:X 0.000210565
3 *687:GATE_N *63:17 4.25716e-05
4 *4:57 *687:GATE_N 0
*RES
1 *657:X *687:GATE_N 30.6 
*END

*D_NET *21 0.000259719
*CONN
*I *688:GATE_N I *D sky130_fd_sc_hd__dlxtn_1
*I *660:X O *D sky130_fd_sc_hd__clkbuf_1
*CAP
1 *688:GATE_N 6.62364e-05
2 *660:X 6.62364e-05
3 *688:GATE_N *660:A 0.000127246
*RES
1 *660:X *688:GATE_N 29.2429 
*END

*D_NET *22 0.000462749
*CONN
*I *689:GATE_N I *D sky130_fd_sc_hd__dlxtn_1
*I *664:X O *D sky130_fd_sc_hd__clkbuf_1
*CAP
1 *689:GATE_N 0.000231374
2 *664:X 0.000231374
3 *689:GATE_N *691:GATE_N 0
4 *689:GATE_N *54:8 0
*RES
1 *664:X *689:GATE_N 31.6714 
*END

*D_NET *23 0.000588861
*CONN
*I *690:GATE_N I *D sky130_fd_sc_hd__dlxtn_1
*I *667:X O *D sky130_fd_sc_hd__clkbuf_1
*CAP
1 *690:GATE_N 0.000136162
2 *667:X 0.000136162
3 *690:GATE_N *657:A 0.000129868
4 *4:46 *690:GATE_N 0.000186669
*RES
1 *667:X *690:GATE_N 31.0107 
*END

*D_NET *24 0.000230905
*CONN
*I *691:GATE_N I *D sky130_fd_sc_hd__dlxtn_1
*I *669:X O *D sky130_fd_sc_hd__clkbuf_1
*CAP
1 *691:GATE_N 7.3457e-05
2 *669:X 7.3457e-05
3 *691:GATE_N *682:A0 0
4 *691:GATE_N *682:A1 2.56601e-05
5 *691:GATE_N *54:8 5.83304e-05
6 *689:GATE_N *691:GATE_N 0
*RES
1 *669:X *691:GATE_N 29.2429 
*END

*D_NET *25 0.00229513
*CONN
*I *692:GATE_N I *D sky130_fd_sc_hd__dlxtn_1
*I *671:X O *D sky130_fd_sc_hd__clkbuf_1
*CAP
1 *692:GATE_N 0.000806049
2 *671:X 0.000806049
3 *692:GATE_N *655:B_N 0
4 *692:GATE_N *671:A 1.92789e-05
5 *692:GATE_N *685:B 5.01883e-05
6 *692:GATE_N *65:8 0.000449546
7 *4:29 *692:GATE_N 0.000164018
8 *4:39 *692:GATE_N 0
*RES
1 *671:X *692:GATE_N 39.6 
*END

*D_NET *26 0.000703624
*CONN
*I *695:D I *D sky130_fd_sc_hd__dfxtp_2
*I *672:Y O *D sky130_fd_sc_hd__inv_2
*CAP
1 *695:D 0.000322916
2 *672:Y 0.000322916
3 *695:D *683:B 0
4 *695:D *695:CLK 4.46186e-06
5 *695:D *697:CLK 4.35048e-05
6 *695:D *697:D 0
7 *69:DIODE *695:D 9.82585e-06
*RES
1 *672:Y *695:D 33.0866 
*END

*D_NET *27 0.000862997
*CONN
*I *696:D I *D sky130_fd_sc_hd__dfxtp_1
*I *685:Y O *D sky130_fd_sc_hd__nand2_1
*CAP
1 *696:D 0.000269445
2 *685:Y 0.000269445
3 *696:D *658:A 0
4 *696:D *686:B 0.00015234
5 *696:D *60:15 7.83659e-05
6 *696:D *66:19 0
7 reg_bus *696:D 9.34004e-05
*RES
1 *685:Y *696:D 33.3723 
*END

*D_NET *28 0.00232526
*CONN
*I *697:D I *D sky130_fd_sc_hd__dfxtp_1
*I *686:Y O *D sky130_fd_sc_hd__xnor2_1
*CAP
1 *697:D 0.00110699
2 *686:Y 0.00110699
3 *697:D *672:A 0
4 *697:D *683:B 4.46186e-06
5 *697:D *695:CLK 0
6 *695:D *697:D 0
7 *4:29 *697:D 0.000106817
*RES
1 *686:Y *697:D 42.533 
*END

*D_NET *29 0.00601083
*CONN
*I *659:B I *D sky130_fd_sc_hd__or3_1
*I *677:B I *D sky130_fd_sc_hd__or3_1
*I *662:B I *D sky130_fd_sc_hd__or2_1
*I *656:B I *D sky130_fd_sc_hd__or3_1
*I *675:D I *D sky130_fd_sc_hd__or4_1
*I *654:X O *D sky130_fd_sc_hd__or4b_2
*CAP
1 *659:B 0
2 *677:B 0.000350992
3 *662:B 0.000257177
4 *656:B 0
5 *675:D 0
6 *654:X 0.000493554
7 *29:39 0.000455701
8 *29:22 0.000553311
9 *29:11 0.000809646
10 *29:8 0.00111178
11 *662:B *662:A 0
12 *662:B *37:15 0.000316184
13 *662:B *66:39 5.01117e-05
14 *677:B *660:A 5.20669e-05
15 *677:B *677:A 0.000261726
16 *677:B *678:A 2.82057e-05
17 *677:B *67:35 0
18 *29:8 *654:A 6.05161e-06
19 *29:8 *693:D 0
20 *29:11 *658:B 6.05161e-06
21 *29:11 *67:28 7.65095e-05
22 *29:11 *67:35 0.000304572
23 *29:22 *656:A 0.00021192
24 *29:22 *657:A 5.80706e-06
25 *29:22 *658:B 8.25512e-05
26 *29:22 *681:C1 2.15363e-05
27 *29:22 *686:A 0.000101545
28 *29:22 *67:10 9.40095e-05
29 *29:39 *693:D 0
30 *29:39 *67:35 0.000103253
31 *72:DIODE *29:11 5.52238e-05
32 *698:GATE_N *677:B 0.000201347
*RES
1 *654:X *29:8 19.7821 
2 *29:8 *29:11 14.4821 
3 *29:11 *675:D 9.3 
4 *29:11 *29:22 15.7321 
5 *29:22 *656:B 9.3 
6 *29:22 *662:B 22.6393 
7 *29:8 *29:39 6.75 
8 *29:39 *677:B 25.3714 
9 *29:39 *659:B 9.3 
*END

*D_NET *30 0.00441898
*CONN
*I *668:A I *D sky130_fd_sc_hd__or2_1
*I *685:A I *D sky130_fd_sc_hd__nand2_1
*I *656:C I *D sky130_fd_sc_hd__or3_1
*I *681:A2 I *D sky130_fd_sc_hd__o221a_1
*I *655:X O *D sky130_fd_sc_hd__or2b_1
*CAP
1 *668:A 0.000210608
2 *685:A 8.87793e-05
3 *656:C 2.23854e-05
4 *681:A2 0.000297546
5 *655:X 0
6 *30:15 0.00089737
7 *30:5 0.000746622
8 *30:4 0.000291013
9 *668:A *655:B_N 0.000218775
10 *668:A *682:S1 1.31516e-05
11 *668:A *60:15 0
12 *668:A *65:56 0.000140011
13 *681:A2 *681:B2 3.18676e-05
14 *681:A2 *681:C1 0.000187042
15 *681:A2 *32:34 0.000163712
16 *681:A2 *37:15 1.02821e-05
17 *685:A *686:B 0.00026537
18 *685:A *60:15 0.00026537
19 *30:5 *655:B_N 3.97677e-05
20 *30:15 *655:B_N 7.19508e-05
21 *30:15 *662:A 0.000148105
22 *30:15 *671:A 7.6644e-05
23 *30:15 *684:B1 9.77264e-06
24 *30:15 *32:34 7.20179e-05
25 *30:15 *37:6 7.83587e-05
26 *30:15 *65:19 7.24613e-05
*RES
1 *655:X *30:4 9.3 
2 *30:4 *30:5 0.946429 
3 *30:5 *30:15 17.2857 
4 *30:15 *681:A2 15.1929 
5 *30:15 *656:C 9.72857 
6 *30:5 *685:A 21.7643 
7 *30:4 *668:A 23.6214 
*END

*D_NET *31 0.00185985
*CONN
*I *657:A I *D sky130_fd_sc_hd__clkbuf_1
*I *656:X O *D sky130_fd_sc_hd__or3_1
*CAP
1 *657:A 0.000710241
2 *656:X 0.000710241
3 *657:A *667:A 3.34599e-05
4 *657:A *681:A1 0
5 *657:A *681:C1 0.000270229
6 *690:GATE_N *657:A 0.000129868
7 *29:22 *657:A 5.80706e-06
*RES
1 *656:X *657:A 41.4214 
*END

*D_NET *32 0.00718225
*CONN
*I *686:B I *D sky130_fd_sc_hd__xnor2_1
*I *670:A I *D sky130_fd_sc_hd__or2_1
*I *681:B1 I *D sky130_fd_sc_hd__o221a_1
*I *659:C I *D sky130_fd_sc_hd__or3_1
*I *658:Y O *D sky130_fd_sc_hd__nand2_1
*CAP
1 *686:B 0.000271817
2 *670:A 0
3 *681:B1 0
4 *659:C 0.000238712
5 *658:Y 0.000587979
6 *32:34 0.000589061
7 *32:23 0.000500393
8 *32:8 0.00100984
9 *659:C *684:A1 6.05161e-06
10 *659:C *684:A2 0.000451463
11 *659:C *693:D 0.000318107
12 *686:B *670:B 5.33005e-05
13 *686:B *60:15 9.04101e-05
14 *686:B *65:8 0.000100823
15 *686:B *65:56 0.000207054
16 *32:8 *58:11 0.000149489
17 *32:23 *681:A1 2.8266e-06
18 *32:23 *684:A3 0
19 *32:34 *662:A 0.000269428
20 *32:34 *670:B 0.000352147
21 *32:34 *671:A 0.000183827
22 *32:34 *681:C1 0.000185118
23 *32:34 *37:15 0.000829688
24 *72:DIODE *32:8 9.73841e-05
25 *681:A2 *32:34 0.000163712
26 *685:A *686:B 0.00026537
27 *696:D *686:B 0.00015234
28 *704:A *32:8 3.38936e-05
29 *30:15 *32:34 7.20179e-05
*RES
1 *658:Y *32:8 23.4071 
2 *32:8 *659:C 20.5321 
3 *32:8 *32:23 7.35714 
4 *32:23 *681:B1 9.3 
5 *32:23 *32:34 12.5 
6 *32:34 *670:A 9.3 
7 *32:34 *686:B 25.9429 
*END

*D_NET *33 0.00166454
*CONN
*I *660:A I *D sky130_fd_sc_hd__clkbuf_1
*I *659:X O *D sky130_fd_sc_hd__or3_1
*CAP
1 *660:A 0.000533536
2 *659:X 0.000533536
3 *660:A *677:A 9.83388e-05
4 *660:A *679:A 8.08376e-05
5 *660:A *684:A2 0
6 *660:A *67:35 3.17148e-05
7 *677:B *660:A 5.20669e-05
8 *688:GATE_N *660:A 0.000127246
9 *698:D *660:A 8.91726e-05
10 *698:GATE_N *660:A 0
11 *4:57 *660:A 0.000118095
*RES
1 *659:X *660:A 39.6536 
*END

*D_NET *34 0.00241864
*CONN
*I *662:A I *D sky130_fd_sc_hd__or2_1
*I *684:A1 I *D sky130_fd_sc_hd__a31o_1
*I *661:Y O *D sky130_fd_sc_hd__inv_2
*CAP
1 *662:A 0.000303885
2 *684:A1 0.000102386
3 *661:Y 0.000222064
4 *34:10 0.000628335
5 *662:A *656:A 9.24491e-05
6 *662:A *684:B1 0.000299779
7 *662:A *65:25 4.46186e-06
8 *662:A *66:39 0
9 *684:A1 *684:B1 0.000185118
10 *34:10 *67:28 9.99853e-05
11 *34:10 *67:35 5.65955e-05
12 *659:C *684:A1 6.05161e-06
13 *662:B *662:A 0
14 *30:15 *662:A 0.000148105
15 *32:34 *662:A 0.000269428
*RES
1 *661:Y *34:10 21.6036 
2 *34:10 *684:A1 11.4786 
3 *34:10 *662:A 26.1393 
*END

*D_NET *35 0.00240182
*CONN
*I *666:A I *D sky130_fd_sc_hd__or2_1
*I *668:B I *D sky130_fd_sc_hd__or2_1
*I *663:C I *D sky130_fd_sc_hd__or3_1
*I *670:B I *D sky130_fd_sc_hd__or2_1
*I *662:X O *D sky130_fd_sc_hd__or2_1
*CAP
1 *666:A 0.000195052
2 *668:B 0.000143515
3 *663:C 0
4 *670:B 0.000207467
5 *662:X 0
6 *35:16 0.000411741
7 *35:4 0.000280641
8 *666:A *666:B 9.76491e-05
9 *666:A *66:44 8.43535e-06
10 *668:B *664:A 5.5033e-05
11 *668:B *66:44 1.98839e-05
12 *668:B *66:52 0.000357286
13 *35:16 *666:B 0.000125724
14 *35:16 *680:A 1.31516e-05
15 *35:16 *60:15 0
16 *35:16 *65:64 8.07951e-05
17 *686:B *670:B 5.33005e-05
18 *32:34 *670:B 0.000352147
*RES
1 *662:X *35:4 9.3 
2 *35:4 *670:B 14.1571 
3 *35:4 *35:16 10.9464 
4 *35:16 *663:C 9.3 
5 *35:16 *668:B 13.1214 
6 *35:16 *666:A 12.7286 
*END

*D_NET *36 0.000724113
*CONN
*I *664:A I *D sky130_fd_sc_hd__clkbuf_1
*I *663:X O *D sky130_fd_sc_hd__or3_1
*CAP
1 *664:A 0.000175038
2 *663:X 0.000175038
3 *664:A *682:S0 7.57312e-05
4 *664:A *60:15 0.000243274
5 *664:A *65:64 0
6 *668:B *664:A 5.5033e-05
*RES
1 *663:X *664:A 31.5464 
*END

*D_NET *37 0.00562044
*CONN
*I *685:B I *D sky130_fd_sc_hd__nand2_1
*I *666:B I *D sky130_fd_sc_hd__or2_1
*I *679:B I *D sky130_fd_sc_hd__or2_1
*I *677:C I *D sky130_fd_sc_hd__or3_1
*I *665:X O *D sky130_fd_sc_hd__or2b_1
*CAP
1 *685:B 0.000252753
2 *666:B 0.00015778
3 *679:B 0
4 *677:C 0.000211964
5 *665:X 0
6 *37:15 0.000913294
7 *37:6 0.00104596
8 *37:4 0.000439605
9 *666:B *680:A 3.17148e-05
10 *666:B *60:15 0
11 *666:B *66:39 0.000117196
12 *666:B *66:44 5.33005e-05
13 *677:C *677:A 5.33005e-05
14 *685:B *671:A 0.000148903
15 *685:B *65:19 9.11048e-06
16 *685:B *67:9 0.000137983
17 *37:6 *671:A 5.84171e-05
18 *37:6 *60:15 0
19 *37:6 *66:28 5.80706e-06
20 *37:6 *66:39 0.000247733
21 *37:15 *681:B2 0.000227539
22 *662:B *37:15 0.000316184
23 *666:A *666:B 9.76491e-05
24 *681:A2 *37:15 1.02821e-05
25 *692:GATE_N *685:B 5.01883e-05
26 *30:15 *37:6 7.83587e-05
27 *32:34 *37:15 0.000829688
28 *35:16 *666:B 0.000125724
*RES
1 *665:X *37:4 9.3 
2 *37:4 *37:6 8.26786 
3 *37:6 *37:15 19.5714 
4 *37:15 *677:C 12.7107 
5 *37:15 *679:B 9.3 
6 *37:6 *666:B 17.9429 
7 *37:4 *685:B 22.9607 
*END

*D_NET *38 0.000735967
*CONN
*I *667:A I *D sky130_fd_sc_hd__clkbuf_1
*I *666:X O *D sky130_fd_sc_hd__or2_1
*CAP
1 *667:A 0.000312752
2 *666:X 0.000312752
3 *667:A *681:A1 0
4 *667:A *681:C1 7.70035e-05
5 *657:A *667:A 3.34599e-05
*RES
1 *666:X *667:A 31.8321 
*END

*D_NET *39 0.000481318
*CONN
*I *669:A I *D sky130_fd_sc_hd__clkbuf_1
*I *668:X O *D sky130_fd_sc_hd__or2_1
*CAP
1 *669:A 0.000172449
2 *668:X 0.000172449
3 *669:A *682:A1 1.02504e-05
4 *669:A *682:S1 4.16114e-05
5 *669:A *60:15 3.5707e-05
6 *669:A *66:52 4.88515e-05
*RES
1 *668:X *669:A 30.6 
*END

*D_NET *40 0.00131202
*CONN
*I *671:A I *D sky130_fd_sc_hd__clkbuf_1
*I *670:X O *D sky130_fd_sc_hd__or2_1
*CAP
1 *671:A 0.000396222
2 *670:X 0.000396222
3 *671:A *60:15 0
4 *671:A *65:19 3.25078e-05
5 *671:A *66:28 0
6 *685:B *671:A 0.000148903
7 *692:GATE_N *671:A 1.92789e-05
8 *30:15 *671:A 7.6644e-05
9 *32:34 *671:A 0.000183827
10 *37:6 *671:A 5.84171e-05
*RES
1 *670:X *671:A 35.1 
*END

*D_NET *41 0.000741782
*CONN
*I *674:A I *D sky130_fd_sc_hd__clkbuf_1
*I *673:X O *D sky130_fd_sc_hd__or4_1
*CAP
1 *674:A 0.000175251
2 *673:X 0.000175251
3 *674:A *57:7 1.94098e-05
4 *674:A *58:11 0.00037187
*RES
1 *673:X *674:A 22.7429 
*END

*D_NET *42 0.000526743
*CONN
*I *676:A I *D sky130_fd_sc_hd__clkbuf_1
*I *675:X O *D sky130_fd_sc_hd__or4_1
*CAP
1 *676:A 0.000210615
2 *675:X 0.000210615
3 *676:A *658:A 0
4 *676:A *658:B 0
5 *676:A *686:A 3.57163e-05
6 *676:A *66:19 0
7 *694:GATE_N *676:A 6.97972e-05
*RES
1 *675:X *676:A 31.975 
*END

*D_NET *43 0.000414679
*CONN
*I *678:A I *D sky130_fd_sc_hd__clkbuf_1
*I *677:X O *D sky130_fd_sc_hd__or3_1
*CAP
1 *678:A 0.000154057
2 *677:X 0.000154057
3 *677:B *678:A 2.82057e-05
4 *698:GATE_N *678:A 7.83587e-05
*RES
1 *677:X *678:A 30.1893 
*END

*D_NET *44 0.00110726
*CONN
*I *684:A2 I *D sky130_fd_sc_hd__a31o_1
*I *679:X O *D sky130_fd_sc_hd__or2_1
*CAP
1 *684:A2 0.000233607
2 *679:X 0.000233607
3 *684:A2 *684:A3 0.000188586
4 *684:A2 *67:35 0
5 *659:C *684:A2 0.000451463
6 *660:A *684:A2 0
*RES
1 *679:X *684:A2 33.7786 
*END

*D_NET *45 0.00176645
*CONN
*I *681:C1 I *D sky130_fd_sc_hd__o221a_1
*I *680:X O *D sky130_fd_sc_hd__or3_1
*CAP
1 *681:C1 0.000377087
2 *680:X 0.000377087
3 *681:C1 *681:A1 0
4 *681:C1 *60:19 0.000271345
5 *657:A *681:C1 0.000270229
6 *667:A *681:C1 7.70035e-05