*SPEF "ieee 1481-1999"
*DESIGN "user_proj_example"
*DATE "11:11:11 Fri 11 11, 1111"
*VENDOR "OpenRCX"
*PROGRAM "Parallel Extraction"
*VERSION "1.0"
*DESIGN_FLOW "NAME_SCOPE LOCAL" "PIN_CAP NONE"
*DIVIDER /
*DELIMITER :
*BUS_DELIMITER []
*T_UNIT 1 NS
*C_UNIT 1 PF
*R_UNIT 1 OHM
*L_UNIT 1 HENRY

*NAME_MAP
*1 io_in[0]
*2 io_in[10]
*3 io_in[11]
*4 io_in[12]
*5 io_in[13]
*6 io_in[14]
*7 io_in[15]
*8 io_in[16]
*9 io_in[17]
*10 io_in[18]
*11 io_in[19]
*12 io_in[1]
*13 io_in[20]
*14 io_in[21]
*15 io_in[22]
*16 io_in[23]
*17 io_in[24]
*18 io_in[25]
*19 io_in[26]
*20 io_in[27]
*21 io_in[28]
*22 io_in[29]
*23 io_in[2]
*24 io_in[30]
*25 io_in[31]
*26 io_in[32]
*27 io_in[33]
*28 io_in[34]
*29 io_in[35]
*30 io_in[36]
*31 io_in[37]
*32 io_in[3]
*33 io_in[4]
*34 io_in[5]
*35 io_in[6]
*36 io_in[7]
*37 io_in[8]
*38 io_in[9]
*39 io_oeb[0]
*40 io_oeb[10]
*41 io_oeb[11]
*42 io_oeb[12]
*43 io_oeb[13]
*44 io_oeb[14]
*45 io_oeb[15]
*46 io_oeb[16]
*47 io_oeb[17]
*48 io_oeb[18]
*49 io_oeb[19]
*50 io_oeb[1]
*51 io_oeb[20]
*52 io_oeb[21]
*53 io_oeb[22]
*54 io_oeb[23]
*55 io_oeb[24]
*56 io_oeb[25]
*57 io_oeb[26]
*58 io_oeb[27]
*59 io_oeb[28]
*60 io_oeb[29]
*61 io_oeb[2]
*62 io_oeb[30]
*63 io_oeb[31]
*64 io_oeb[32]
*65 io_oeb[33]
*66 io_oeb[34]
*67 io_oeb[35]
*68 io_oeb[36]
*69 net244
*70 io_oeb[3]
*71 io_oeb[4]
*72 io_oeb[5]
*73 io_oeb[6]
*74 io_oeb[7]
*75 io_oeb[8]
*76 io_oeb[9]
*77 io_out[0]
*78 io_out[10]
*79 io_out[11]
*80 io_out[12]
*81 io_out[13]
*82 io_out[14]
*83 io_out[15]
*84 io_out[16]
*85 io_out[17]
*86 io_out[18]
*87 io_out[19]
*88 io_out[1]
*89 io_out[20]
*90 io_out[21]
*91 io_out[22]
*92 io_out[23]
*93 io_out[24]
*94 io_out[25]
*95 io_out[26]
*96 io_out[27]
*97 io_out[28]
*98 io_out[29]
*99 io_out[2]
*100 io_out[30]
*101 io_out[31]
*102 net245
*103 net246
*104 net247
*105 net248
*106 net249
*107 net250
*108 io_out[3]
*109 io_out[4]
*110 io_out[5]
*111 io_out[6]
*112 io_out[7]
*113 io_out[8]
*114 io_out[9]
*115 net251
*116 net252
*117 net253
*118 la_data_in[0]
*119 la_data_in[10]
*120 la_data_in[11]
*121 la_data_in[12]
*122 la_data_in[13]
*123 la_data_in[14]
*124 la_data_in[15]
*125 la_data_in[16]
*126 la_data_in[17]
*127 la_data_in[18]
*128 la_data_in[19]
*129 la_data_in[1]
*130 la_data_in[20]
*131 la_data_in[21]
*132 la_data_in[22]
*133 la_data_in[23]
*134 la_data_in[24]
*135 la_data_in[25]
*136 la_data_in[26]
*137 la_data_in[27]
*138 la_data_in[28]
*139 la_data_in[29]
*140 la_data_in[2]
*141 la_data_in[30]
*142 la_data_in[31]
*143 la_data_in[32]
*144 la_data_in[33]
*145 la_data_in[34]
*146 la_data_in[35]
*147 la_data_in[36]
*148 la_data_in[37]
*149 la_data_in[38]
*150 la_data_in[39]
*151 la_data_in[3]
*152 la_data_in[40]
*153 la_data_in[41]
*154 la_data_in[42]
*155 la_data_in[43]
*156 la_data_in[44]
*157 la_data_in[45]
*158 la_data_in[46]
*159 la_data_in[47]
*160 la_data_in[48]
*161 la_data_in[49]
*162 la_data_in[4]
*163 la_data_in[50]
*164 la_data_in[51]
*165 la_data_in[52]
*166 la_data_in[53]
*167 la_data_in[54]
*168 la_data_in[55]
*169 la_data_in[56]
*170 la_data_in[57]
*171 la_data_in[58]
*172 la_data_in[59]
*173 la_data_in[5]
*174 la_data_in[60]
*175 la_data_in[61]
*176 la_data_in[62]
*177 la_data_in[63]
*178 la_data_in[6]
*179 la_data_in[7]
*180 la_data_in[8]
*181 la_data_in[9]
*182 la_data_out[0]
*183 la_data_out[10]
*184 la_data_out[11]
*185 la_data_out[12]
*186 la_data_out[13]
*187 la_data_out[14]
*188 la_data_out[15]
*189 la_data_out[16]
*190 la_data_out[17]
*191 la_data_out[18]
*192 la_data_out[19]
*193 la_data_out[1]
*194 la_data_out[20]
*195 la_data_out[21]
*196 la_data_out[22]
*197 la_data_out[23]
*198 la_data_out[24]
*199 la_data_out[25]
*200 la_data_out[26]
*201 la_data_out[27]
*202 la_data_out[28]
*203 la_data_out[29]
*204 la_data_out[2]
*205 la_data_out[30]
*206 la_data_out[31]
*207 net254
*208 net255
*209 net256
*210 net257
*211 net258
*212 net259
*213 net260
*214 net261
*215 la_data_out[3]
*216 net262
*217 net263
*218 net264
*219 net265
*220 net266
*221 net267
*222 net268
*223 net269
*224 net270
*225 net271
*226 la_data_out[4]
*227 net272
*228 net273
*229 net274
*230 net275
*231 net276
*232 net277
*233 net278
*234 net279
*235 net280
*236 net281
*237 la_data_out[5]
*238 net282
*239 net283
*240 net284
*241 net285
*242 la_data_out[6]
*243 la_data_out[7]
*244 la_data_out[8]
*245 la_data_out[9]
*246 la_oenb[0]
*247 la_oenb[10]
*248 la_oenb[11]
*249 la_oenb[12]
*250 la_oenb[13]
*251 la_oenb[14]
*252 la_oenb[15]
*253 la_oenb[16]
*254 la_oenb[17]
*255 la_oenb[18]
*256 la_oenb[19]
*257 la_oenb[1]
*258 la_oenb[20]
*259 la_oenb[21]
*260 la_oenb[22]
*261 la_oenb[23]
*262 la_oenb[24]
*263 la_oenb[25]
*264 la_oenb[26]
*265 la_oenb[27]
*266 la_oenb[28]
*267 la_oenb[29]
*268 la_oenb[2]
*269 la_oenb[30]
*270 la_oenb[31]
*271 la_oenb[32]
*272 la_oenb[33]
*273 la_oenb[34]
*274 la_oenb[35]
*275 la_oenb[36]
*276 la_oenb[37]
*277 la_oenb[38]
*278 la_oenb[39]
*279 la_oenb[3]
*280 la_oenb[40]
*281 la_oenb[41]
*282 la_oenb[42]
*283 la_oenb[43]
*284 la_oenb[44]
*285 la_oenb[45]
*286 la_oenb[46]
*287 la_oenb[47]
*288 la_oenb[48]
*289 la_oenb[49]
*290 la_oenb[4]
*291 la_oenb[50]
*292 la_oenb[51]
*293 la_oenb[52]
*294 la_oenb[53]
*295 la_oenb[54]
*296 la_oenb[55]
*297 la_oenb[56]
*298 la_oenb[57]
*299 la_oenb[58]
*300 la_oenb[59]
*301 la_oenb[5]
*302 la_oenb[60]
*303 la_oenb[61]
*304 la_oenb[62]
*305 la_oenb[63]
*306 la_oenb[6]
*307 la_oenb[7]
*308 la_oenb[8]
*309 la_oenb[9]
*312 wb_clk_i
*313 wb_rst_i
*314 wbs_ack_o
*315 wbs_adr_i[0]
*316 wbs_adr_i[10]
*317 wbs_adr_i[11]
*318 wbs_adr_i[12]
*319 wbs_adr_i[13]
*320 wbs_adr_i[14]
*321 wbs_adr_i[15]
*322 wbs_adr_i[16]
*323 wbs_adr_i[17]
*324 wbs_adr_i[18]
*325 wbs_adr_i[19]
*326 wbs_adr_i[1]
*327 wbs_adr_i[20]
*328 wbs_adr_i[21]
*329 wbs_adr_i[22]
*330 wbs_adr_i[23]
*331 wbs_adr_i[24]
*332 wbs_adr_i[25]
*333 wbs_adr_i[26]
*334 wbs_adr_i[27]
*335 wbs_adr_i[28]
*336 wbs_adr_i[29]
*337 wbs_adr_i[2]
*338 wbs_adr_i[30]
*339 wbs_adr_i[31]
*340 wbs_adr_i[3]
*341 wbs_adr_i[4]
*342 wbs_adr_i[5]
*343 wbs_adr_i[6]
*344 wbs_adr_i[7]
*345 wbs_adr_i[8]
*346 wbs_adr_i[9]
*347 wbs_cyc_i
*348 wbs_dat_i[0]
*349 wbs_dat_i[10]
*350 wbs_dat_i[11]
*351 wbs_dat_i[12]
*352 wbs_dat_i[13]
*353 wbs_dat_i[14]
*354 wbs_dat_i[15]
*355 wbs_dat_i[16]
*356 wbs_dat_i[17]
*357 wbs_dat_i[18]
*358 wbs_dat_i[19]
*359 wbs_dat_i[1]
*360 wbs_dat_i[20]
*361 wbs_dat_i[21]
*362 wbs_dat_i[22]
*363 wbs_dat_i[23]
*364 wbs_dat_i[24]
*365 wbs_dat_i[25]
*366 wbs_dat_i[26]
*367 wbs_dat_i[27]
*368 wbs_dat_i[28]
*369 wbs_dat_i[29]
*370 wbs_dat_i[2]
*371 wbs_dat_i[30]
*372 wbs_dat_i[31]
*373 wbs_dat_i[3]
*374 wbs_dat_i[4]
*375 wbs_dat_i[5]
*376 wbs_dat_i[6]
*377 wbs_dat_i[7]
*378 wbs_dat_i[8]
*379 wbs_dat_i[9]
*380 wbs_dat_o[0]
*381 wbs_dat_o[10]
*382 wbs_dat_o[11]
*383 wbs_dat_o[12]
*384 wbs_dat_o[13]
*385 wbs_dat_o[14]
*386 wbs_dat_o[15]
*387 wbs_dat_o[16]
*388 wbs_dat_o[17]
*389 wbs_dat_o[18]
*390 wbs_dat_o[19]
*391 wbs_dat_o[1]
*392 wbs_dat_o[20]
*393 wbs_dat_o[21]
*394 wbs_dat_o[22]
*395 wbs_dat_o[23]
*396 wbs_dat_o[24]
*397 wbs_dat_o[25]
*398 wbs_dat_o[26]
*399 wbs_dat_o[27]
*400 wbs_dat_o[28]
*401 wbs_dat_o[29]
*402 wbs_dat_o[2]
*403 wbs_dat_o[30]
*404 wbs_dat_o[31]
*405 wbs_dat_o[3]
*406 wbs_dat_o[4]
*407 wbs_dat_o[5]
*408 wbs_dat_o[6]
*409 wbs_dat_o[7]
*410 wbs_dat_o[8]
*411 wbs_dat_o[9]
*412 wbs_sel_i[0]
*413 wbs_sel_i[1]
*414 wbs_sel_i[2]
*415 wbs_sel_i[3]
*416 wbs_stb_i
*417 wbs_we_i
*418 _000_
*419 _001_
*420 _002_
*421 _003_
*422 _004_
*423 _005_
*424 _006_
*425 _007_
*426 _008_
*427 _009_
*428 _010_
*429 _011_
*430 _012_
*431 _013_
*432 _014_
*433 _015_
*434 _016_
*435 _017_
*436 _018_
*437 _019_
*438 _020_
*439 _021_
*440 _022_
*441 _023_
*442 _024_
*443 _025_
*444 _026_
*445 _027_
*446 _028_
*447 _029_
*448 _030_
*449 _031_
*450 _032_
*451 _033_
*452 _034_
*453 _035_
*454 _036_
*455 _037_
*456 _038_
*457 _039_
*458 _040_
*459 _041_
*460 _042_
*461 _043_
*462 _044_
*463 _045_
*464 _046_
*465 _047_
*466 _048_
*467 _049_
*468 _050_
*469 _051_
*470 _052_
*471 _053_
*472 _054_
*473 _055_
*474 _056_
*475 _057_
*476 _058_
*477 _059_
*478 _060_
*479 _061_
*480 _062_
*481 _063_
*482 _064_
*483 _065_
*484 _066_
*485 _067_
*486 _068_
*487 _069_
*488 _070_
*489 _071_
*490 _072_
*491 _073_
*492 _074_
*493 _075_
*494 _076_
*495 _077_
*496 _078_
*497 _079_
*498 _080_
*499 _081_
*500 _082_
*501 _083_
*502 _084_
*503 _085_
*504 _086_
*505 _087_
*506 _088_
*507 _089_
*508 _090_
*509 _091_
*510 _092_
*511 _093_
*512 _094_
*513 _095_
*514 _096_
*515 _097_
*516 _098_
*517 _099_
*518 _100_
*519 _101_
*520 _102_
*521 _103_
*522 _104_
*523 _105_
*524 _106_
*525 _107_
*526 _108_
*527 _109_
*528 _110_
*529 _111_
*530 _112_
*531 _113_
*532 _114_
*533 _115_
*534 _116_
*535 _117_
*536 _118_
*537 _119_
*538 _120_
*539 _121_
*540 _122_
*541 _123_
*542 _124_
*543 _125_
*544 _126_
*545 _127_
*546 _128_
*547 _129_
*548 _130_
*549 _131_
*550 _132_
*551 _133_
*552 _134_
*553 _135_
*554 _136_
*555 _137_
*556 _138_
*557 _139_
*558 _140_
*559 _141_
*560 _142_
*561 _143_
*562 _144_
*563 _145_
*564 _146_
*565 _147_
*566 _148_
*567 _149_
*568 _150_
*569 _151_
*570 _152_
*571 _153_
*572 _154_
*573 _155_
*574 _156_
*575 _157_
*576 _158_
*577 _159_
*578 _160_
*579 _161_
*580 _162_
*581 _163_
*582 _164_
*583 _165_
*584 _166_
*585 _167_
*586 _168_
*587 _169_
*588 _170_
*589 _171_
*590 _172_
*591 _173_
*592 _174_
*593 _175_
*594 _176_
*595 _177_
*596 _178_
*597 _179_
*598 _180_
*599 _181_
*600 _182_
*601 _183_
*602 _184_
*603 _185_
*604 _186_
*605 _187_
*606 _188_
*607 _189_
*608 _190_
*609 _191_
*610 _192_
*611 _193_
*612 _194_
*613 _195_
*614 _196_
*615 _197_
*616 _198_
*617 _199_
*618 _200_
*619 _201_
*620 _202_
*621 _203_
*622 _204_
*623 _205_
*624 _206_
*625 _207_
*626 _208_
*627 _209_
*628 _210_
*629 _211_
*630 _212_
*631 _213_
*632 _214_
*633 _215_
*634 _216_
*635 _217_
*636 _218_
*637 _219_
*638 _220_
*639 _221_
*640 _222_
*641 _223_
*642 _224_
*643 _225_
*644 _226_
*645 _227_
*646 _228_
*647 _229_
*648 _230_
*649 _231_
*650 _232_
*651 _233_
*652 _234_
*653 _235_
*654 _236_
*655 _237_
*656 _238_
*657 _239_
*658 _240_
*659 _241_
*660 _242_
*661 _243_
*662 _244_
*663 _245_
*664 _246_
*665 _247_
*666 _248_
*667 _249_
*668 _250_
*669 _251_
*670 _252_
*671 _253_
*672 _254_
*673 _255_
*674 _256_
*675 _257_
*676 _258_
*677 _259_
*678 _260_
*679 _261_
*680 _262_
*681 _263_
*682 _264_
*683 _265_
*684 _266_
*685 _267_
*686 _268_
*687 _269_
*688 _270_
*689 _271_
*690 _272_
*691 _273_
*692 _274_
*693 _275_
*694 _276_
*695 _277_
*696 _278_
*697 _279_
*698 _280_
*699 _281_
*700 _282_
*701 _283_
*702 _284_
*703 _285_
*704 _286_
*705 _287_
*706 _288_
*707 _289_
*708 _290_
*709 _291_
*710 _292_
*711 _293_
*712 _294_
*713 _295_
*714 _296_
*715 _297_
*716 _298_
*717 _299_
*718 clknet_0_wb_clk_i
*719 clknet_3_0__leaf_wb_clk_i
*720 clknet_3_1__leaf_wb_clk_i
*721 clknet_3_2__leaf_wb_clk_i
*722 clknet_3_3__leaf_wb_clk_i
*723 clknet_3_4__leaf_wb_clk_i
*724 clknet_3_5__leaf_wb_clk_i
*725 clknet_3_6__leaf_wb_clk_i
*726 clknet_3_7__leaf_wb_clk_i
*727 net1
*728 net10
*729 net100
*730 net101
*731 net102
*732 net103
*733 net104
*734 net105
*735 net106
*736 net107
*737 net108
*738 net109
*739 net11
*740 net110
*741 net111
*742 net112
*743 net113
*744 net114
*745 net115
*746 net116
*747 net117
*748 net118
*749 net119
*750 net12
*751 net120
*752 net121
*753 net122
*754 net123
*755 net124
*756 net125
*757 net126
*758 net127
*759 net128
*760 net129
*761 net13
*762 net130
*763 net131
*764 net132
*765 net133
*766 net134
*767 net135
*768 net136
*769 net137
*770 net138
*771 net139
*772 net14
*773 net140
*774 net141
*775 net142
*776 net143
*777 net144
*778 net145
*779 net146
*780 net147
*781 net148
*782 net149
*783 net15
*784 net150
*785 net151
*786 net152
*787 net153
*788 net154
*789 net155
*790 net156
*791 net157
*792 net158
*793 net159
*794 net16
*795 net160
*796 net161
*797 net162
*798 net163
*799 net164
*800 net165
*801 net166
*802 net167
*803 net168
*804 net169
*805 net17
*806 net170
*807 net171
*808 net172
*809 net173
*810 net174
*811 net175
*812 net176
*813 net177
*814 net178
*815 net179
*816 net18
*817 net180
*818 net181
*819 net182
*820 net183
*821 net184
*822 net185
*823 net186
*824 net187
*825 net188
*826 net189
*827 net19
*828 net190
*829 net191
*830 net192
*831 net193
*832 net194
*833 net195
*834 net196
*835 net197
*836 net198
*837 net199
*838 net2
*839 net20
*840 net200
*841 net201
*842 net202
*843 net203
*844 net204
*845 net205
*846 net206
*847 net207
*848 net208
*849 net209
*850 net21
*851 net210
*852 net211
*853 net212
*854 net213
*855 net214
*856 net215
*857 net216
*858 net217
*859 net218
*860 net219
*861 net22
*862 net220
*863 net221
*864 net222
*865 net223
*866 net224
*867 net225
*868 net226
*869 net227
*870 net228
*871 net229
*872 net23
*873 net230
*874 net231
*875 net232
*876 net233
*877 net234
*878 net235
*879 net236
*880 net237
*881 net238
*882 net239
*883 net24
*884 net240
*885 net241
*886 net242
*887 net243
*888 net25
*889 net26
*890 net27
*891 net28
*892 net29
*893 net3
*894 net30
*895 net31
*896 net32
*897 net33
*898 net34
*899 net35
*900 net36
*901 net37
*902 net38
*903 net39
*904 net4
*905 net40
*906 net41
*907 net42
*908 net43
*909 net44
*910 net45
*911 net46
*912 net47
*913 net48
*914 net49
*915 net5
*916 net50
*917 net51
*918 net52
*919 net53
*920 net54
*921 net55
*922 net56
*923 net57
*924 net58
*925 net59
*926 net6
*927 net60
*928 net61
*929 net62
*930 net63
*931 net64
*932 net65
*933 net66
*934 net67
*935 net68
*936 net69
*937 net7
*938 net70
*939 net71
*940 net72
*941 net73
*942 net74
*943 net75
*944 net76
*945 net77
*946 net78
*947 net79
*948 net8
*949 net80
*950 net81
*951 net82
*952 net83
*953 net84
*954 net85
*955 net86
*956 net87
*957 net88
*958 net89
*959 net9
*960 net90
*961 net91
*962 net92
*963 net93
*964 net94
*965 net95
*966 net96
*967 net97
*968 net98
*969 net99
*970 ANTENNA__301__A
*971 ANTENNA__302__A
*972 ANTENNA__302__B
*973 ANTENNA__302__C_N
*974 ANTENNA__304__A
*975 ANTENNA__305__A
*976 ANTENNA__306__A
*977 ANTENNA__306__B_N
*978 ANTENNA__307__A
*979 ANTENNA__307__B
*980 ANTENNA__307__C
*981 ANTENNA__309__A
*982 ANTENNA__311__A
*983 ANTENNA__312__A
*984 ANTENNA__312__B
*985 ANTENNA__313__A1
*986 ANTENNA__313__A3
*987 ANTENNA__313__A4
*988 ANTENNA__313__B1
*989 ANTENNA__314__A1
*990 ANTENNA__314__A2
*991 ANTENNA__314__A3
*992 ANTENNA__314__A4
*993 ANTENNA__314__B1
*994 ANTENNA__315__A2
*995 ANTENNA__315__A4
*996 ANTENNA__315__B1
*997 ANTENNA__316__A4
*998 ANTENNA__316__B1
*999 ANTENNA__318__A2
*1000 ANTENNA__318__B1
*1001 ANTENNA__319__A1
*1002 ANTENNA__319__A2
*1003 ANTENNA__319__A3
*1004 ANTENNA__319__A4
*1005 ANTENNA__319__B1
*1006 ANTENNA__320__A1
*1007 ANTENNA__320__A2
*1008 ANTENNA__320__A3
*1009 ANTENNA__320__A4
*1010 ANTENNA__320__B1
*1011 ANTENNA__321__A1
*1012 ANTENNA__321__A2
*1013 ANTENNA__321__A3
*1014 ANTENNA__321__A4
*1015 ANTENNA__321__B1
*1016 ANTENNA__323__A_N
*1017 ANTENNA__324__A1
*1018 ANTENNA__324__B1
*1019 ANTENNA__326__A1
*1020 ANTENNA__326__A2
*1021 ANTENNA__326__A3
*1022 ANTENNA__326__B2
*1023 ANTENNA__327__A
*1024 ANTENNA__328__B1
*1025 ANTENNA__329__A
*1026 ANTENNA__329__B
*1027 ANTENNA__330__A
*1028 ANTENNA__330__B
*1029 ANTENNA__332__A
*1030 ANTENNA__332__B
*1031 ANTENNA__333__A1
*1032 ANTENNA__333__B2
*1033 ANTENNA__334__A
*1034 ANTENNA__335__B1_N
*1035 ANTENNA__336__A
*1036 ANTENNA__336__B
*1037 ANTENNA__336__C
*1038 ANTENNA__337__A1
*1039 ANTENNA__337__A2
*1040 ANTENNA__337__B1
*1041 ANTENNA__338__A
*1042 ANTENNA__340__A
*1043 ANTENNA__341__B1
*1044 ANTENNA__342__A
*1045 ANTENNA__343__A
*1046 ANTENNA__343__B
*1047 ANTENNA__343__C
*1048 ANTENNA__343__D
*1049 ANTENNA__344__A1
*1050 ANTENNA__344__A2
*1051 ANTENNA__344__A3
*1052 ANTENNA__344__B1
*1053 ANTENNA__346__A
*1054 ANTENNA__346__B
*1055 ANTENNA__347__A1
*1056 ANTENNA__347__B2
*1057 ANTENNA__348__B1
*1058 ANTENNA__349__A1
*1059 ANTENNA__350__A1
*1060 ANTENNA__351__A
*1061 ANTENNA__353__A1
*1062 ANTENNA__353__A2
*1063 ANTENNA__353__B2
*1064 ANTENNA__354__A
*1065 ANTENNA__355__B1_N
*1066 ANTENNA__356__A
*1067 ANTENNA__356__B
*1068 ANTENNA__357__A1
*1069 ANTENNA__357__B1
*1070 ANTENNA__359__A
*1071 ANTENNA__359__B
*1072 ANTENNA__360__A1
*1073 ANTENNA__360__B2
*1074 ANTENNA__361__B1
*1075 ANTENNA__362__A
*1076 ANTENNA__362__B
*1077 ANTENNA__362__C
*1078 ANTENNA__363__A1
*1079 ANTENNA__365__A
*1080 ANTENNA__366__B1
*1081 ANTENNA__367__A
*1082 ANTENNA__368__A
*1083 ANTENNA__369__A
*1084 ANTENNA__372__A1
*1085 ANTENNA__372__A2
*1086 ANTENNA__372__B2
*1087 ANTENNA__373__B1_N
*1088 ANTENNA__374__A
*1089 ANTENNA__374__B
*1090 ANTENNA__375__A1
*1091 ANTENNA__375__B1
*1092 ANTENNA__376__A
*1093 ANTENNA__378__A
*1094 ANTENNA__378__B
*1095 ANTENNA__378__C
*1096 ANTENNA__380__A1
*1097 ANTENNA__380__A2
*1098 ANTENNA__380__B1
*1099 ANTENNA__380__B2
*1100 ANTENNA__381__A1
*1101 ANTENNA__382__A
*1102 ANTENNA__383__A1
*1103 ANTENNA__383__A2
*1104 ANTENNA__383__B1
*1105 ANTENNA__384__A
*1106 ANTENNA__384__B
*1107 ANTENNA__385__A
*1108 ANTENNA__387__A
*1109 ANTENNA__388__A
*1110 ANTENNA__388__B
*1111 ANTENNA__389__A1
*1112 ANTENNA__389__B1
*1113 ANTENNA__389__B2
*1114 ANTENNA__390__B1_N
*1115 ANTENNA__391__A
*1116 ANTENNA__391__B
*1117 ANTENNA__392__A1
*1118 ANTENNA__392__B1
*1119 ANTENNA__395__A1
*1120 ANTENNA__395__A2
*1121 ANTENNA__395__B1
*1122 ANTENNA__395__B2
*1123 ANTENNA__396__B1_N
*1124 ANTENNA__397__A
*1125 ANTENNA__398__A1
*1126 ANTENNA__398__B1
*1127 ANTENNA__400__A
*1128 ANTENNA__400__B
*1129 ANTENNA__401__B1
*1130 ANTENNA__402__A
*1131 ANTENNA__403__A1
*1132 ANTENNA__403__B1_N
*1133 ANTENNA__404__A1
*1134 ANTENNA__406__A1
*1135 ANTENNA__406__A2
*1136 ANTENNA__406__B1
*1137 ANTENNA__406__B2
*1138 ANTENNA__407__B1_N
*1139 ANTENNA__408__A
*1140 ANTENNA__408__B
*1141 ANTENNA__408__C
*1142 ANTENNA__409__A1
*1143 ANTENNA__409__A2
*1144 ANTENNA__409__B1
*1145 ANTENNA__410__A
*1146 ANTENNA__411__B
*1147 ANTENNA__412__A
*1148 ANTENNA__412__B
*1149 ANTENNA__413__A1
*1150 ANTENNA__413__B1
*1151 ANTENNA__414__A
*1152 ANTENNA__415__A1
*1153 ANTENNA__415__A2
*1154 ANTENNA__415__B1
*1155 ANTENNA__416__A1
*1156 ANTENNA__416__A2
*1157 ANTENNA__417__A
*1158 ANTENNA__418__A1
*1159 ANTENNA__418__A2
*1160 ANTENNA__418__B1
*1161 ANTENNA__418__B2
*1162 ANTENNA__419__B1_N
*1163 ANTENNA__420__A
*1164 ANTENNA__420__B
*1165 ANTENNA__420__C
*1166 ANTENNA__422__A1
*1167 ANTENNA__422__A2
*1168 ANTENNA__422__B1
*1169 ANTENNA__423__A
*1170 ANTENNA__424__A
*1171 ANTENNA__425__A1
*1172 ANTENNA__425__A2
*1173 ANTENNA__425__B1
*1174 ANTENNA__425__B2
*1175 ANTENNA__426__B1_N
*1176 ANTENNA__427__A
*1177 ANTENNA__427__B
*1178 ANTENNA__427__C
*1179 ANTENNA__428__A
*1180 ANTENNA__429__A
*1181 ANTENNA__430__A
*1182 ANTENNA__431__A
*1183 ANTENNA__431__B
*1184 ANTENNA__432__A1
*1185 ANTENNA__432__B1
*1186 ANTENNA__433__A1
*1187 ANTENNA__434__A1
*1188 ANTENNA__434__A3
*1189 ANTENNA__435__B1
*1190 ANTENNA__436__A
*1191 ANTENNA__436__B
*1192 ANTENNA__437__A
*1193 ANTENNA__437__B
*1194 ANTENNA__437__C
*1195 ANTENNA__439__A1
*1196 ANTENNA__440__A
*1197 ANTENNA__441__A1
*1198 ANTENNA__441__A2
*1199 ANTENNA__441__B2
*1200 ANTENNA__442__B1_N
*1201 ANTENNA__443__A
*1202 ANTENNA__444__A1
*1203 ANTENNA__445__A
*1204 ANTENNA__446__A1
*1205 ANTENNA__446__A2
*1206 ANTENNA__446__B2
*1207 ANTENNA__448__A
*1208 ANTENNA__449__A
*1209 ANTENNA__449__B
*1210 ANTENNA__451__A1
*1211 ANTENNA__451__B1
*1212 ANTENNA__453__A
*1213 ANTENNA__454__A1
*1214 ANTENNA__454__A2
*1215 ANTENNA__454__B2
*1216 ANTENNA__455__B1_N
*1217 ANTENNA__456__A
*1218 ANTENNA__457__A1
*1219 ANTENNA__459__A
*1220 ANTENNA__459__B
*1221 ANTENNA__460__A1
*1222 ANTENNA__460__B2
*1223 ANTENNA__461__B1_N
*1224 ANTENNA__462__A
*1225 ANTENNA__462__B
*1226 ANTENNA__463__A
*1227 ANTENNA__463__B
*1228 ANTENNA__465__A1
*1229 ANTENNA__466__A
*1230 ANTENNA__466__B
*1231 ANTENNA__467__A1
*1232 ANTENNA__467__B2
*1233 ANTENNA__468__B1_N
*1234 ANTENNA__469__A
*1235 ANTENNA__470__A1
*1236 ANTENNA__471__A
*1237 ANTENNA__472__A1
*1238 ANTENNA__472__A2
*1239 ANTENNA__472__B2
*1240 ANTENNA__474__A
*1241 ANTENNA__475__A
*1242 ANTENNA__475__B
*1243 ANTENNA__477__A1
*1244 ANTENNA__477__B1
*1245 ANTENNA__479__A
*1246 ANTENNA__480__A1
*1247 ANTENNA__480__A2
*1248 ANTENNA__480__B2
*1249 ANTENNA__481__B1_N
*1250 ANTENNA__482__A
*1251 ANTENNA__483__A
*1252 ANTENNA__483__B
*1253 ANTENNA__484__A1
*1254 ANTENNA__484__B1
*1255 ANTENNA__485__A1
*1256 ANTENNA__487__A
*1257 ANTENNA__488__A
*1258 ANTENNA__488__B
*1259 ANTENNA__488__C
*1260 ANTENNA__489__A1
*1261 ANTENNA__489__B2
*1262 ANTENNA__490__B1_N
*1263 ANTENNA__491__A
*1264 ANTENNA__491__B
*1265 ANTENNA__492__A
*1266 ANTENNA__492__B
*1267 ANTENNA__494__A1
*1268 ANTENNA__495__A
*1269 ANTENNA__496__A1
*1270 ANTENNA__496__B2
*1271 ANTENNA__497__B1_N
*1272 ANTENNA__498__A
*1273 ANTENNA__499__A1
*1274 ANTENNA__500__A
*1275 ANTENNA__501__A1
*1276 ANTENNA__501__B2
*1277 ANTENNA__503__A
*1278 ANTENNA__504__A
*1279 ANTENNA__505__A
*1280 ANTENNA__506__A1
*1281 ANTENNA__506__B2
*1282 ANTENNA__508__A
*1283 ANTENNA__510__A
*1284 ANTENNA__510__B
*1285 ANTENNA__510__C
*1286 ANTENNA__512__A1
*1287 ANTENNA__512__A2
*1288 ANTENNA__512__B1
*1289 ANTENNA__514__A
*1290 ANTENNA__514__B
*1291 ANTENNA__515__A1
*1292 ANTENNA__515__B2
*1293 ANTENNA__516__B1
*1294 ANTENNA__517__A1
*1295 ANTENNA__518__A1
*1296 ANTENNA__519__A
*1297 ANTENNA__519__B
*1298 ANTENNA__520__A1
*1299 ANTENNA__520__B2
*1300 ANTENNA__521__B1_N
*1301 ANTENNA__522__A
*1302 ANTENNA__522__C_N
*1303 ANTENNA__523__A1
*1304 ANTENNA__523__B1
*1305 ANTENNA__524__A1
*1306 ANTENNA__524__A2
*1307 ANTENNA__525__A1_N
*1308 ANTENNA__526__B1
*1309 ANTENNA__527__A
*1310 ANTENNA__527__B
*1311 ANTENNA__527__C
*1312 ANTENNA__528__A1
*1313 ANTENNA__528__A2
*1314 ANTENNA__528__B1
*1315 ANTENNA__529__A
*1316 ANTENNA__529__B
*1317 ANTENNA__530__A1
*1318 ANTENNA__530__B2
*1319 ANTENNA__532__A_N
*1320 ANTENNA__534__A0
*1321 ANTENNA__534__S
*1322 ANTENNA__536__A0
*1323 ANTENNA__536__S
*1324 ANTENNA__538__A0
*1325 ANTENNA__538__S
*1326 ANTENNA__540__A0
*1327 ANTENNA__540__S
*1328 ANTENNA__542__A0
*1329 ANTENNA__542__S
*1330 ANTENNA__544__A0
*1331 ANTENNA__544__S
*1332 ANTENNA__546__A0
*1333 ANTENNA__546__S
*1334 ANTENNA__548__A0
*1335 ANTENNA__548__S
*1336 ANTENNA__550__A0
*1337 ANTENNA__550__S
*1338 ANTENNA__552__A
*1339 ANTENNA__553__A0
*1340 ANTENNA__553__A1
*1341 ANTENNA__555__A0
*1342 ANTENNA__557__A0
*1343 ANTENNA__559__A0
*1344 ANTENNA__561__A0
*1345 ANTENNA__563__A0
*1346 ANTENNA__565__A0
*1347 ANTENNA__567__A0
*1348 ANTENNA__569__A0
*1349 ANTENNA__571__A0
*1350 ANTENNA__573__A
*1351 ANTENNA__574__A0
*1352 ANTENNA__574__S
*1353 ANTENNA__576__A0
*1354 ANTENNA__576__A1
*1355 ANTENNA__576__S
*1356 ANTENNA__578__A0
*1357 ANTENNA__578__S
*1358 ANTENNA__580__A0
*1359 ANTENNA__580__A1
*1360 ANTENNA__580__S
*1361 ANTENNA__582__A0
*1362 ANTENNA__582__S
*1363 ANTENNA__584__A0
*1364 ANTENNA__584__S
*1365 ANTENNA__586__A0
*1366 ANTENNA__586__S
*1367 ANTENNA__588__A0
*1368 ANTENNA__588__S
*1369 ANTENNA__590__A0
*1370 ANTENNA__590__S
*1371 ANTENNA__592__A0
*1372 ANTENNA__592__S
*1373 ANTENNA__594__A0
*1374 ANTENNA__594__S
*1375 ANTENNA__596__A0
*1376 ANTENNA__596__S
*1377 ANTENNA__598__A0
*1378 ANTENNA__598__S
*1379 ANTENNA__600__CLK
*1380 ANTENNA__601__CLK
*1381 ANTENNA__602__CLK
*1382 ANTENNA__603__CLK
*1383 ANTENNA__604__CLK
*1384 ANTENNA__605__CLK
*1385 ANTENNA__606__CLK
*1386 ANTENNA__607__CLK
*1387 ANTENNA__608__CLK
*1388 ANTENNA__609__CLK
*1389 ANTENNA__610__CLK
*1390 ANTENNA__611__CLK
*1391 ANTENNA__612__CLK
*1392 ANTENNA__613__CLK
*1393 ANTENNA__614__CLK
*1394 ANTENNA__615__CLK
*1395 ANTENNA__616__CLK
*1396 ANTENNA__617__CLK
*1397 ANTENNA__618__CLK
*1398 ANTENNA__619__CLK
*1399 ANTENNA__620__CLK
*1400 ANTENNA__621__CLK
*1401 ANTENNA__622__CLK
*1402 ANTENNA__623__CLK
*1403 ANTENNA__624__CLK
*1404 ANTENNA__625__CLK
*1405 ANTENNA__626__CLK
*1406 ANTENNA__627__CLK
*1407 ANTENNA__628__CLK
*1408 ANTENNA__629__CLK
*1409 ANTENNA__630__CLK
*1410 ANTENNA__631__CLK
*1411 ANTENNA__632__CLK
*1412 ANTENNA__633__CLK
*1413 ANTENNA__634__CLK
*1414 ANTENNA__635__CLK
*1415 ANTENNA__636__CLK
*1416 ANTENNA__637__CLK
*1417 ANTENNA__638__CLK
*1418 ANTENNA__639__CLK
*1419 ANTENNA__640__CLK
*1420 ANTENNA__641__CLK
*1421 ANTENNA__642__CLK
*1422 ANTENNA__643__CLK
*1423 ANTENNA__644__CLK
*1424 ANTENNA__645__CLK
*1425 ANTENNA__646__CLK
*1426 ANTENNA__647__CLK
*1427 ANTENNA__648__CLK
*1428 ANTENNA__649__CLK
*1429 ANTENNA__650__CLK
*1430 ANTENNA__651__CLK
*1431 ANTENNA__652__CLK
*1432 ANTENNA__653__CLK
*1433 ANTENNA__654__CLK
*1434 ANTENNA__655__CLK
*1435 ANTENNA__656__CLK
*1436 ANTENNA__659__CLK
*1437 ANTENNA__664__CLK
*1438 ANTENNA__707__A
*1439 ANTENNA__708__A
*1440 ANTENNA__709__A
*1441 ANTENNA__710__A
*1442 ANTENNA__711__A
*1443 ANTENNA__712__A
*1444 ANTENNA__713__A
*1445 ANTENNA__714__A
*1446 ANTENNA__715__A
*1447 ANTENNA__716__A
*1448 ANTENNA__717__A
*1449 ANTENNA__718__A
*1450 ANTENNA__719__A
*1451 ANTENNA__720__A
*1452 ANTENNA__721__A
*1453 ANTENNA__722__A
*1454 ANTENNA__723__A
*1455 ANTENNA__724__A
*1456 ANTENNA__725__A
*1457 ANTENNA__726__A
*1458 ANTENNA__727__A
*1459 ANTENNA__728__A
*1460 ANTENNA__729__A
*1461 ANTENNA__730__A
*1462 ANTENNA__731__A
*1463 ANTENNA__732__A
*1464 ANTENNA__733__A
*1465 ANTENNA__734__A
*1466 ANTENNA__735__A
*1467 ANTENNA__736__A
*1468 ANTENNA__737__A
*1469 ANTENNA__738__A
*1470 ANTENNA__739__A
*1471 ANTENNA__740__A
*1472 ANTENNA__741__A
*1473 ANTENNA__742__A
*1474 ANTENNA__743__A
*1475 ANTENNA__744__A
*1476 ANTENNA__745__A
*1477 ANTENNA__746__A
*1478 ANTENNA__747__A
*1479 ANTENNA__748__A
*1480 ANTENNA__749__A
*1481 ANTENNA__750__A
*1482 ANTENNA__751__A
*1483 ANTENNA__752__A
*1484 ANTENNA__753__A
*1485 ANTENNA__754__A
*1486 ANTENNA__755__A
*1487 ANTENNA__756__A
*1488 ANTENNA__757__A
*1489 ANTENNA__758__A
*1490 ANTENNA__759__A
*1491 ANTENNA__760__A
*1492 ANTENNA__761__A
*1493 ANTENNA__762__A
*1494 ANTENNA__763__A
*1495 ANTENNA__764__A
*1496 ANTENNA__765__A
*1497 ANTENNA__766__A
*1498 ANTENNA__767__A
*1499 ANTENNA__768__A
*1500 ANTENNA__769__A
*1501 ANTENNA__770__A
*1502 ANTENNA__771__A
*1503 ANTENNA__772__A
*1504 ANTENNA__773__A
*1505 ANTENNA__774__A
*1506 ANTENNA__775__A
*1507 ANTENNA_clkbuf_0_wb_clk_i_A
*1508 ANTENNA_fanout239_A
*1509 ANTENNA_fanout240_A
*1510 ANTENNA_fanout241_A
*1511 ANTENNA_fanout242_A
*1512 ANTENNA_fanout243_A
*1513 ANTENNA_input100_A
*1514 ANTENNA_input101_A
*1515 ANTENNA_input102_A
*1516 ANTENNA_input103_A
*1517 ANTENNA_input104_A
*1518 ANTENNA_input10_A
*1519 ANTENNA_input11_A
*1520 ANTENNA_input12_A
*1521 ANTENNA_input13_A
*1522 ANTENNA_input14_A
*1523 ANTENNA_input15_A
*1524 ANTENNA_input16_A
*1525 ANTENNA_input17_A
*1526 ANTENNA_input18_A
*1527 ANTENNA_input19_A
*1528 ANTENNA_input1_A
*1529 ANTENNA_input20_A
*1530 ANTENNA_input21_A
*1531 ANTENNA_input22_A
*1532 ANTENNA_input23_A
*1533 ANTENNA_input24_A
*1534 ANTENNA_input25_A
*1535 ANTENNA_input26_A
*1536 ANTENNA_input27_A
*1537 ANTENNA_input28_A
*1538 ANTENNA_input29_A
*1539 ANTENNA_input2_A
*1540 ANTENNA_input30_A
*1541 ANTENNA_input31_A
*1542 ANTENNA_input32_A
*1543 ANTENNA_input33_A
*1544 ANTENNA_input34_A
*1545 ANTENNA_input35_A
*1546 ANTENNA_input36_A
*1547 ANTENNA_input37_A
*1548 ANTENNA_input38_A
*1549 ANTENNA_input39_A
*1550 ANTENNA_input3_A
*1551 ANTENNA_input40_A
*1552 ANTENNA_input41_A
*1553 ANTENNA_input42_A
*1554 ANTENNA_input43_A
*1555 ANTENNA_input44_A
*1556 ANTENNA_input45_A
*1557 ANTENNA_input46_A
*1558 ANTENNA_input47_A
*1559 ANTENNA_input48_A
*1560 ANTENNA_input49_A
*1561 ANTENNA_input4_A
*1562 ANTENNA_input50_A
*1563 ANTENNA_input51_A
*1564 ANTENNA_input52_A
*1565 ANTENNA_input53_A
*1566 ANTENNA_input54_A
*1567 ANTENNA_input55_A
*1568 ANTENNA_input56_A
*1569 ANTENNA_input57_A
*1570 ANTENNA_input58_A
*1571 ANTENNA_input59_A
*1572 ANTENNA_input5_A
*1573 ANTENNA_input60_A
*1574 ANTENNA_input61_A
*1575 ANTENNA_input62_A
*1576 ANTENNA_input63_A
*1577 ANTENNA_input64_A
*1578 ANTENNA_input65_A
*1579 ANTENNA_input66_A
*1580 ANTENNA_input67_A
*1581 ANTENNA_input68_A
*1582 ANTENNA_input69_A
*1583 ANTENNA_input6_A
*1584 ANTENNA_input70_A
*1585 ANTENNA_input71_A
*1586 ANTENNA_input72_A
*1587 ANTENNA_input73_A
*1588 ANTENNA_input74_A
*1589 ANTENNA_input75_A
*1590 ANTENNA_input76_A
*1591 ANTENNA_input77_A
*1592 ANTENNA_input78_A
*1593 ANTENNA_input79_A
*1594 ANTENNA_input7_A
*1595 ANTENNA_input80_A
*1596 ANTENNA_input81_A
*1597 ANTENNA_input82_A
*1598 ANTENNA_input83_A
*1599 ANTENNA_input84_A
*1600 ANTENNA_input85_A
*1601 ANTENNA_input86_A
*1602 ANTENNA_input87_A
*1603 ANTENNA_input88_A
*1604 ANTENNA_input89_A
*1605 ANTENNA_input8_A
*1606 ANTENNA_input90_A
*1607 ANTENNA_input91_A
*1608 ANTENNA_input92_A
*1609 ANTENNA_input93_A
*1610 ANTENNA_input94_A
*1611 ANTENNA_input95_A
*1612 ANTENNA_input96_A
*1613 ANTENNA_input97_A
*1614 ANTENNA_input98_A
*1615 ANTENNA_input99_A
*1616 ANTENNA_input9_A
*1617 ANTENNA_output142_A
*1618 ANTENNA_output143_A
*1619 ANTENNA_output144_A
*1620 ANTENNA_output145_A
*1621 ANTENNA_output146_A
*1622 ANTENNA_output147_A
*1623 ANTENNA_output148_A
*1624 ANTENNA_output149_A
*1625 ANTENNA_output150_A
*1626 ANTENNA_output151_A
*1627 ANTENNA_output152_A
*1628 ANTENNA_output153_A
*1629 ANTENNA_output154_A
*1630 ANTENNA_output155_A
*1631 ANTENNA_output156_A
*1632 ANTENNA_output157_A
*1633 ANTENNA_output158_A
*1634 ANTENNA_output159_A
*1635 ANTENNA_output160_A
*1636 ANTENNA_output161_A
*1637 ANTENNA_output162_A
*1638 ANTENNA_output163_A
*1639 ANTENNA_output164_A
*1640 ANTENNA_output165_A
*1641 ANTENNA_output166_A
*1642 ANTENNA_output167_A
*1643 ANTENNA_output168_A
*1644 ANTENNA_output169_A
*1645 ANTENNA_output170_A
*1646 ANTENNA_output171_A
*1647 ANTENNA_output172_A
*1648 ANTENNA_output173_A
*1649 ANTENNA_output206_A
*1650 ANTENNA_output219_A
*1651 ANTENNA_output221_A
*1652 ANTENNA_output238_A
*1653 FILLER_0_1000
*1654 FILLER_0_1006
*1655 FILLER_0_1009
*1656 FILLER_0_1013
*1657 FILLER_0_1018
*1658 FILLER_0_1025
*1659 FILLER_0_1029
*1660 FILLER_0_1034
*1661 FILLER_0_1037
*1662 FILLER_0_1041
*1663 FILLER_0_1049
*1664 FILLER_0_105
*1665 FILLER_0_1057
*1666 FILLER_0_1063
*1667 FILLER_0_1065
*1668 FILLER_0_1072
*1669 FILLER_0_1078
*1670 FILLER_0_1086
*1671 FILLER_0_1093
*1672 FILLER_0_1103
*1673 FILLER_0_1109
*1674 FILLER_0_111
*1675 FILLER_0_1117
*1676 FILLER_0_1121
*1677 FILLER_0_1127
*1678 FILLER_0_113
*1679 FILLER_0_1135