*SPEF "ieee 1481-1999"
*DESIGN "user_project_wrapper"
*DATE "11:11:11 Fri 11 11, 1111"
*VENDOR "OpenRCX"
*PROGRAM "Parallel Extraction"
*VERSION "1.0"
*DESIGN_FLOW "NAME_SCOPE LOCAL" "PIN_CAP NONE"
*DIVIDER /
*DELIMITER :
*BUS_DELIMITER []
*T_UNIT 1 NS
*C_UNIT 1 PF
*R_UNIT 1 OHM
*L_UNIT 1 HENRY

*NAME_MAP
*1 io_in[0]
*2 io_in[10]
*3 io_in[11]
*4 io_in[12]
*5 io_in[13]
*6 io_in[14]
*7 io_in[15]
*8 io_in[16]
*9 io_in[17]
*10 io_in[18]
*11 io_in[19]
*12 io_in[1]
*13 io_in[20]
*14 io_in[21]
*15 io_in[22]
*16 io_in[23]
*17 io_in[24]
*18 io_in[25]
*19 io_in[26]
*20 io_in[27]
*21 io_in[28]
*22 io_in[29]
*23 io_in[2]
*24 io_in[30]
*25 io_in[31]
*26 io_in[32]
*27 io_in[33]
*28 io_in[34]
*29 io_in[35]
*30 io_in[36]
*31 io_in[37]
*32 io_in[3]
*33 io_in[4]
*34 io_in[5]
*35 io_in[6]
*36 io_in[7]
*37 io_in[8]
*38 io_in[9]
*39 io_oeb[0]
*40 io_oeb[10]
*41 io_oeb[11]
*42 io_oeb[12]
*43 io_oeb[13]
*44 io_oeb[14]
*45 io_oeb[15]
*46 io_oeb[16]
*47 io_oeb[17]
*48 io_oeb[18]
*49 io_oeb[19]
*50 io_oeb[1]
*51 io_oeb[20]
*52 io_oeb[21]
*53 io_oeb[22]
*54 io_oeb[23]
*55 io_oeb[24]
*56 io_oeb[25]
*57 io_oeb[26]
*58 io_oeb[27]
*59 io_oeb[28]
*60 io_oeb[29]
*61 io_oeb[2]
*62 io_oeb[30]
*63 io_oeb[31]
*64 io_oeb[32]
*65 io_oeb[33]
*66 io_oeb[34]
*67 io_oeb[35]
*68 io_oeb[36]
*69 io_oeb[37]
*70 io_oeb[3]
*71 io_oeb[4]
*72 io_oeb[5]
*73 io_oeb[6]
*74 io_oeb[7]
*75 io_oeb[8]
*76 io_oeb[9]
*77 io_out[0]
*78 io_out[10]
*79 io_out[11]
*80 io_out[12]
*81 io_out[13]
*82 io_out[14]
*83 io_out[15]
*84 io_out[16]
*85 io_out[17]
*86 io_out[18]
*87 io_out[19]
*88 io_out[1]
*89 io_out[20]
*90 io_out[21]
*91 io_out[22]
*92 io_out[23]
*93 io_out[24]
*94 io_out[25]
*95 io_out[26]
*96 io_out[27]
*97 io_out[28]
*98 io_out[29]
*99 io_out[2]
*100 io_out[30]
*101 io_out[31]
*102 io_out[32]
*103 io_out[33]
*104 io_out[34]
*105 io_out[35]
*106 io_out[36]
*107 io_out[37]
*108 io_out[3]
*109 io_out[4]
*110 io_out[5]
*111 io_out[6]
*112 io_out[7]
*113 io_out[8]
*114 io_out[9]
*115 la_data_in[0]
*116 la_data_in[10]
*117 la_data_in[11]
*118 la_data_in[12]
*119 la_data_in[13]
*120 la_data_in[14]
*121 la_data_in[15]
*122 la_data_in[16]
*123 la_data_in[17]
*124 la_data_in[18]
*125 la_data_in[19]
*126 la_data_in[1]
*127 la_data_in[20]
*128 la_data_in[21]
*129 la_data_in[22]
*130 la_data_in[23]
*131 la_data_in[24]
*132 la_data_in[25]
*133 la_data_in[26]
*134 la_data_in[27]
*135 la_data_in[28]
*136 la_data_in[29]
*137 la_data_in[2]
*138 la_data_in[30]
*139 la_data_in[31]
*140 la_data_in[32]
*141 la_data_in[33]
*142 la_data_in[34]
*143 la_data_in[35]
*144 la_data_in[36]
*145 la_data_in[37]
*146 la_data_in[38]
*147 la_data_in[39]
*148 la_data_in[3]
*149 la_data_in[40]
*150 la_data_in[41]
*151 la_data_in[42]
*152 la_data_in[43]
*153 la_data_in[44]
*154 la_data_in[45]
*155 la_data_in[46]
*156 la_data_in[47]
*157 la_data_in[48]
*158 la_data_in[49]
*159 la_data_in[4]
*160 la_data_in[50]
*161 la_data_in[51]
*162 la_data_in[52]
*163 la_data_in[53]
*164 la_data_in[54]
*165 la_data_in[55]
*166 la_data_in[56]
*167 la_data_in[57]
*168 la_data_in[58]
*169 la_data_in[59]
*170 la_data_in[5]
*171 la_data_in[60]
*172 la_data_in[61]
*173 la_data_in[62]
*174 la_data_in[63]
*175 la_data_in[6]
*176 la_data_in[7]
*177 la_data_in[8]
*178 la_data_in[9]
*179 la_data_out[0]
*180 la_data_out[10]
*181 la_data_out[11]
*182 la_data_out[12]
*183 la_data_out[13]
*184 la_data_out[14]
*185 la_data_out[15]
*186 la_data_out[16]
*187 la_data_out[17]
*188 la_data_out[18]
*189 la_data_out[19]
*190 la_data_out[1]
*191 la_data_out[20]
*192 la_data_out[21]
*193 la_data_out[22]
*194 la_data_out[23]
*195 la_data_out[24]
*196 la_data_out[25]
*197 la_data_out[26]
*198 la_data_out[27]
*199 la_data_out[28]
*200 la_data_out[29]
*201 la_data_out[2]
*202 la_data_out[30]
*203 la_data_out[31]
*204 la_data_out[32]
*205 la_data_out[33]
*206 la_data_out[34]
*207 la_data_out[35]
*208 la_data_out[36]
*209 la_data_out[37]
*210 la_data_out[38]
*211 la_data_out[39]
*212 la_data_out[3]
*213 la_data_out[40]
*214 la_data_out[41]
*215 la_data_out[42]
*216 la_data_out[43]
*217 la_data_out[44]
*218 la_data_out[45]
*219 la_data_out[46]
*220 la_data_out[47]
*221 la_data_out[48]
*222 la_data_out[49]
*223 la_data_out[4]
*224 la_data_out[50]
*225 la_data_out[51]
*226 la_data_out[52]
*227 la_data_out[53]
*228 la_data_out[54]
*229 la_data_out[55]
*230 la_data_out[56]
*231 la_data_out[57]
*232 la_data_out[58]
*233 la_data_out[59]
*234 la_data_out[5]
*235 la_data_out[60]
*236 la_data_out[61]
*237 la_data_out[62]
*238 la_data_out[63]
*239 la_data_out[6]
*240 la_data_out[7]
*241 la_data_out[8]
*242 la_data_out[9]
*243 la_oenb[0]
*244 la_oenb[10]
*245 la_oenb[11]
*246 la_oenb[12]
*247 la_oenb[13]
*248 la_oenb[14]
*249 la_oenb[15]
*250 la_oenb[16]
*251 la_oenb[17]
*252 la_oenb[18]
*253 la_oenb[19]
*254 la_oenb[1]
*255 la_oenb[20]
*256 la_oenb[21]
*257 la_oenb[22]
*258 la_oenb[23]
*259 la_oenb[24]
*260 la_oenb[25]
*261 la_oenb[26]
*262 la_oenb[27]
*263 la_oenb[28]
*264 la_oenb[29]
*265 la_oenb[2]
*266 la_oenb[30]
*267 la_oenb[31]
*268 la_oenb[32]
*269 la_oenb[33]
*270 la_oenb[34]
*271 la_oenb[35]
*272 la_oenb[36]
*273 la_oenb[37]
*274 la_oenb[38]
*275 la_oenb[39]
*276 la_oenb[3]
*277 la_oenb[40]
*278 la_oenb[41]
*279 la_oenb[42]
*280 la_oenb[43]
*281 la_oenb[44]
*282 la_oenb[45]
*283 la_oenb[46]
*284 la_oenb[47]
*285 la_oenb[48]
*286 la_oenb[49]
*287 la_oenb[4]
*288 la_oenb[50]
*289 la_oenb[51]
*290 la_oenb[52]
*291 la_oenb[53]
*292 la_oenb[54]
*293 la_oenb[55]
*294 la_oenb[56]
*295 la_oenb[57]
*296 la_oenb[58]
*297 la_oenb[59]
*298 la_oenb[5]
*299 la_oenb[60]
*300 la_oenb[61]
*301 la_oenb[62]
*302 la_oenb[63]
*303 la_oenb[6]
*304 la_oenb[7]
*305 la_oenb[8]
*306 la_oenb[9]
*307 user_clock2
*308 user_irq[0]
*309 user_irq[1]
*310 user_irq[2]
*313 wb_clk_i
*314 wb_rst_i
*315 wbs_ack_o
*316 wbs_adr_i[0]
*317 wbs_adr_i[10]
*318 wbs_adr_i[11]
*319 wbs_adr_i[12]
*320 wbs_adr_i[13]
*321 wbs_adr_i[14]
*322 wbs_adr_i[15]
*323 wbs_adr_i[16]
*324 wbs_adr_i[17]
*325 wbs_adr_i[18]
*326 wbs_adr_i[19]
*327 wbs_adr_i[1]
*328 wbs_adr_i[20]
*329 wbs_adr_i[21]
*330 wbs_adr_i[22]
*331 wbs_adr_i[23]
*332 wbs_adr_i[24]
*333 wbs_adr_i[25]
*334 wbs_adr_i[26]
*335 wbs_adr_i[27]
*336 wbs_adr_i[28]
*337 wbs_adr_i[29]
*338 wbs_adr_i[2]
*339 wbs_adr_i[30]
*340 wbs_adr_i[31]
*341 wbs_adr_i[3]
*342 wbs_adr_i[4]
*343 wbs_adr_i[5]
*344 wbs_adr_i[6]
*345 wbs_adr_i[7]
*346 wbs_adr_i[8]
*347 wbs_adr_i[9]
*348 wbs_cyc_i
*349 wbs_dat_i[0]
*350 wbs_dat_i[10]
*351 wbs_dat_i[11]
*352 wbs_dat_i[12]
*353 wbs_dat_i[13]
*354 wbs_dat_i[14]
*355 wbs_dat_i[15]
*356 wbs_dat_i[16]
*357 wbs_dat_i[17]
*358 wbs_dat_i[18]
*359 wbs_dat_i[19]
*360 wbs_dat_i[1]
*361 wbs_dat_i[20]
*362 wbs_dat_i[21]
*363 wbs_dat_i[22]
*364 wbs_dat_i[23]
*365 wbs_dat_i[24]
*366 wbs_dat_i[25]
*367 wbs_dat_i[26]
*368 wbs_dat_i[27]
*369 wbs_dat_i[28]
*370 wbs_dat_i[29]
*371 wbs_dat_i[2]
*372 wbs_dat_i[30]
*373 wbs_dat_i[31]
*374 wbs_dat_i[3]
*375 wbs_dat_i[4]
*376 wbs_dat_i[5]
*377 wbs_dat_i[6]
*378 wbs_dat_i[7]
*379 wbs_dat_i[8]
*380 wbs_dat_i[9]
*381 wbs_dat_o[0]
*382 wbs_dat_o[10]
*383 wbs_dat_o[11]
*384 wbs_dat_o[12]
*385 wbs_dat_o[13]
*386 wbs_dat_o[14]
*387 wbs_dat_o[15]
*388 wbs_dat_o[16]
*389 wbs_dat_o[17]
*390 wbs_dat_o[18]
*391 wbs_dat_o[19]
*392 wbs_dat_o[1]
*393 wbs_dat_o[20]
*394 wbs_dat_o[21]
*395 wbs_dat_o[22]
*396 wbs_dat_o[23]
*397 wbs_dat_o[24]
*398 wbs_dat_o[25]
*399 wbs_dat_o[26]
*400 wbs_dat_o[27]
*401 wbs_dat_o[28]
*402 wbs_dat_o[29]
*403 wbs_dat_o[2]
*404 wbs_dat_o[30]
*405 wbs_dat_o[31]
*406 wbs_dat_o[3]
*407 wbs_dat_o[4]
*408 wbs_dat_o[5]
*409 wbs_dat_o[6]
*410 wbs_dat_o[7]
*411 wbs_dat_o[8]
*412 wbs_dat_o[9]
*413 wbs_sel_i[0]
*414 wbs_sel_i[1]
*415 wbs_sel_i[2]
*416 wbs_sel_i[3]
*417 wbs_stb_i
*418 wbs_we_i
*419 mprj

*PORTS
io_in[0] I
io_in[10] I
io_in[11] I
io_in[12] I
io_in[13] I
io_in[14] I
io_in[15] I
io_in[16] I
io_in[17] I
io_in[18] I
io_in[19] I
io_in[1] I
io_in[20] I
io_in[21] I
io_in[22] I
io_in[23] I
io_in[24] I
io_in[25] I
io_in[26] I
io_in[27] I
io_in[28] I
io_in[29] I
io_in[2] I
io_in[30] I
io_in[31] I
io_in[32] I
io_in[33] I
io_in[34] I
io_in[35] I
io_in[36] I
io_in[37] I
io_in[3] I
io_in[4] I
io_in[5] I
io_in[6] I
io_in[7] I
io_in[8] I
io_in[9] I
io_oeb[0] O
io_oeb[10] O
io_oeb[11] O
io_oeb[12] O
io_oeb[13] O
io_oeb[14] O
io_oeb[15] O
io_oeb[16] O
io_oeb[17] O
io_oeb[18] O
io_oeb[19] O
io_oeb[1] O
io_oeb[20] O
io_oeb[21] O
io_oeb[22] O
io_oeb[23] O
io_oeb[24] O
io_oeb[25] O
io_oeb[26] O
io_oeb[27] O
io_oeb[28] O
io_oeb[29] O
io_oeb[2] O
io_oeb[30] O
io_oeb[31] O
io_oeb[32] O
io_oeb[33] O
io_oeb[34] O
io_oeb[35] O
io_oeb[36] O
io_oeb[37] O
io_oeb[3] O
io_oeb[4] O
io_oeb[5] O
io_oeb[6] O
io_oeb[7] O
io_oeb[8] O
io_oeb[9] O
io_out[0] O
io_out[10] O
io_out[11] O
io_out[12] O
io_out[13] O
io_out[14] O
io_out[15] O
io_out[16] O
io_out[17] O
io_out[18] O
io_out[19] O
io_out[1] O
io_out[20] O
io_out[21] O
io_out[22] O
io_out[23] O
io_out[24] O
io_out[25] O
io_out[26] O
io_out[27] O
io_out[28] O
io_out[29] O
io_out[2] O
io_out[30] O
io_out[31] O
io_out[32] O
io_out[33] O
io_out[34] O
io_out[35] O
io_out[36] O
io_out[37] O
io_out[3] O
io_out[4] O
io_out[5] O
io_out[6] O
io_out[7] O
io_out[8] O
io_out[9] O
la_data_in[0] I
la_data_in[10] I
la_data_in[11] I
la_data_in[12] I
la_data_in[13] I
la_data_in[14] I
la_data_in[15] I
la_data_in[16] I
la_data_in[17] I
la_data_in[18] I
la_data_in[19] I
la_data_in[1] I
la_data_in[20] I
la_data_in[21] I
la_data_in[22] I
la_data_in[23] I
la_data_in[24] I
la_data_in[25] I
la_data_in[26] I
la_data_in[27] I
la_data_in[28] I
la_data_in[29] I
la_data_in[2] I
la_data_in[30] I
la_data_in[31] I
la_data_in[32] I
la_data_in[33] I
la_data_in[34] I
la_data_in[35] I
la_data_in[36] I
la_data_in[37] I
la_data_in[38] I
la_data_in[39] I
la_data_in[3] I
la_data_in[40] I
la_data_in[41] I
la_data_in[42] I
la_data_in[43] I
la_data_in[44] I
la_data_in[45] I
la_data_in[46] I
la_data_in[47] I
la_data_in[48] I
la_data_in[49] I
la_data_in[4] I
la_data_in[50] I
la_data_in[51] I
la_data_in[52] I
la_data_in[53] I
la_data_in[54] I
la_data_in[55] I
la_data_in[56] I
la_data_in[57] I
la_data_in[58] I
la_data_in[59] I
la_data_in[5] I
la_data_in[60] I
la_data_in[61] I
la_data_in[62] I
la_data_in[63] I
la_data_in[6] I
la_data_in[7] I
la_data_in[8] I
la_data_in[9] I
la_data_out[0] O
la_data_out[10] O
la_data_out[11] O
la_data_out[12] O
la_data_out[13] O
la_data_out[14] O
la_data_out[15] O
la_data_out[16] O
la_data_out[17] O
la_data_out[18] O
la_data_out[19] O
la_data_out[1] O
la_data_out[20] O
la_data_out[21] O
la_data_out[22] O
la_data_out[23] O
la_data_out[24] O
la_data_out[25] O
la_data_out[26] O
la_data_out[27] O
la_data_out[28] O
la_data_out[29] O
la_data_out[2] O
la_data_out[30] O
la_data_out[31] O
la_data_out[32] O
la_data_out[33] O
la_data_out[34] O
la_data_out[35] O
la_data_out[36] O
la_data_out[37] O
la_data_out[38] O
la_data_out[39] O
la_data_out[3] O
la_data_out[40] O
la_data_out[41] O
la_data_out[42] O
la_data_out[43] O
la_data_out[44] O
la_data_out[45] O
la_data_out[46] O
la_data_out[47] O
la_data_out[48] O
la_data_out[49] O
la_data_out[4] O
la_data_out[50] O
la_data_out[51] O
la_data_out[52] O
la_data_out[53] O
la_data_out[54] O
la_data_out[55] O
la_data_out[56] O
la_data_out[57] O
la_data_out[58] O
la_data_out[59] O
la_data_out[5] O
la_data_out[60] O
la_data_out[61] O
la_data_out[62] O
la_data_out[63] O
la_data_out[6] O
la_data_out[7] O
la_data_out[8] O
la_data_out[9] O
la_oenb[0] I
la_oenb[10] I
la_oenb[11] I
la_oenb[12] I
la_oenb[13] I
la_oenb[14] I
la_oenb[15] I
la_oenb[16] I
la_oenb[17] I
la_oenb[18] I
la_oenb[19] I
la_oenb[1] I
la_oenb[20] I
la_oenb[21] I
la_oenb[22] I
la_oenb[23] I
la_oenb[24] I
la_oenb[25] I
la_oenb[26] I
la_oenb[27] I
la_oenb[28] I
la_oenb[29] I
la_oenb[2] I
la_oenb[30] I
la_oenb[31] I
la_oenb[32] I
la_oenb[33] I
la_oenb[34] I
la_oenb[35] I
la_oenb[36] I
la_oenb[37] I
la_oenb[38] I
la_oenb[39] I
la_oenb[3] I
la_oenb[40] I
la_oenb[41] I
la_oenb[42] I
la_oenb[43] I
la_oenb[44] I
la_oenb[45] I
la_oenb[46] I
la_oenb[47] I
la_oenb[48] I
la_oenb[49] I
la_oenb[4] I
la_oenb[50] I
la_oenb[51] I
la_oenb[52] I
la_oenb[53] I
la_oenb[54] I
la_oenb[55] I
la_oenb[56] I
la_oenb[57] I
la_oenb[58] I
la_oenb[59] I
la_oenb[5] I
la_oenb[60] I
la_oenb[61] I
la_oenb[62] I
la_oenb[63] I
la_oenb[6] I
la_oenb[7] I
la_oenb[8] I
la_oenb[9] I
user_clock2 I
user_irq[0] O
user_irq[1] O
user_irq[2] O
wb_clk_i I
wb_rst_i I
wbs_ack_o O
wbs_adr_i[0] I
wbs_adr_i[10] I
wbs_adr_i[11] I
wbs_adr_i[12] I
wbs_adr_i[13] I
wbs_adr_i[14] I
wbs_adr_i[15] I
wbs_adr_i[16] I
wbs_adr_i[17] I
wbs_adr_i[18] I
wbs_adr_i[19] I
wbs_adr_i[1] I
wbs_adr_i[20] I
wbs_adr_i[21] I
wbs_adr_i[22] I
wbs_adr_i[23] I
wbs_adr_i[24] I
wbs_adr_i[25] I
wbs_adr_i[26] I
wbs_adr_i[27] I
wbs_adr_i[28] I
wbs_adr_i[29] I
wbs_adr_i[2] I
wbs_adr_i[30] I
wbs_adr_i[31] I
wbs_adr_i[3] I
wbs_adr_i[4] I
wbs_adr_i[5] I
wbs_adr_i[6] I
wbs_adr_i[7] I
wbs_adr_i[8] I
wbs_adr_i[9] I
wbs_cyc_i I
wbs_dat_i[0] I
wbs_dat_i[10] I
wbs_dat_i[11] I
wbs_dat_i[12] I
wbs_dat_i[13] I
wbs_dat_i[14] I
wbs_dat_i[15] I
wbs_dat_i[16] I
wbs_dat_i[17] I
wbs_dat_i[18] I
wbs_dat_i[19] I
wbs_dat_i[1] I
wbs_dat_i[20] I
wbs_dat_i[21] I
wbs_dat_i[22] I
wbs_dat_i[23] I
wbs_dat_i[24] I
wbs_dat_i[25] I
wbs_dat_i[26] I
wbs_dat_i[27] I
wbs_dat_i[28] I
wbs_dat_i[29] I
wbs_dat_i[2] I
wbs_dat_i[30] I
wbs_dat_i[31] I
wbs_dat_i[3] I
wbs_dat_i[4] I
wbs_dat_i[5] I
wbs_dat_i[6] I
wbs_dat_i[7] I
wbs_dat_i[8] I
wbs_dat_i[9] I
wbs_dat_o[0] O
wbs_dat_o[10] O
wbs_dat_o[11] O
wbs_dat_o[12] O
wbs_dat_o[13] O
wbs_dat_o[14] O
wbs_dat_o[15] O
wbs_dat_o[16] O
wbs_dat_o[17] O
wbs_dat_o[18] O
wbs_dat_o[19] O
wbs_dat_o[1] O
wbs_dat_o[20] O
wbs_dat_o[21] O
wbs_dat_o[22] O
wbs_dat_o[23] O
wbs_dat_o[24] O
wbs_dat_o[25] O
wbs_dat_o[26] O
wbs_dat_o[27] O
wbs_dat_o[28] O
wbs_dat_o[29] O
wbs_dat_o[2] O
wbs_dat_o[30] O
wbs_dat_o[31] O
wbs_dat_o[3] O
wbs_dat_o[4] O
wbs_dat_o[5] O
wbs_dat_o[6] O
wbs_dat_o[7] O
wbs_dat_o[8] O
wbs_dat_o[9] O
wbs_sel_i[0] I
wbs_sel_i[1] I
wbs_sel_i[2] I
wbs_sel_i[3] I
wbs_stb_i I
wbs_we_i I

*D_NET *1 0.554287
*CONN
*P io_in[0] I
*I *419:io_in[0] I *D spi_wrapper
*CAP
1 io_in[0] 0.000384734
2 *419:io_in[0] 0.00023556
3 *1:14 0.0124767
4 *1:13 0.0122411
5 *1:11 0.073759
6 *1:10 0.073759
7 *1:8 0.0245133
8 *1:7 0.0248981
9 *419:io_in[0] *25:15 0.000249634
10 *1:8 *12:8 0.000614513
11 *1:8 *23:8 0.00498466
12 *1:8 *32:8 0.135155
13 *1:8 *33:8 0.110109
14 *1:8 *50:11 0.00173674
15 *1:8 *61:11 0.00377472
16 *1:8 *88:11 0.00138133
17 *1:14 *70:11 0.0740132
*RES
1 io_in[0] *1:7 7.605 
2 *1:7 *1:8 535.05 
3 *1:8 *1:10 4.5 
4 *1:10 *1:11 576.27 
5 *1:11 *1:13 4.5 
6 *1:13 *1:14 188.19 
7 *1:14 *419:io_in[0] 1.845 
*END

*D_NET *2 0.269066
*CONN
*P io_in[10] I
*I *419:io_in[10] I *D spi_wrapper
*CAP
1 io_in[10] 0.000453421
2 *419:io_in[10] 0.000276074
3 *2:11 0.0345775
4 *2:10 0.0343015
5 *2:8 6.9202e-05
6 *2:7 0.000522623
7 *2:8 *32:8 0.0336964
8 *2:8 *33:8 0.0336884
9 *2:11 *12:11 0.016075
10 *2:11 *21:19 0.00976509
11 *2:11 *38:19 0.00299333
12 *2:11 *69:7 0.00198673
13 *2:11 *71:9 0
14 *2:11 *114:5 0.0650958
15 *2:11 *114:15 0.0110354
16 *2:11 *114:19 0.00252907
17 *2:11 *114:21 0.0220001
*RES
1 io_in[10] *2:7 7.605 
2 *2:7 *2:8 85.77 
3 *2:8 *2:10 4.5 
4 *2:10 *2:11 498.87 
5 *2:11 *419:io_in[10] 14.85 
*END

*D_NET *3 0.200807
*CONN
*P io_in[11] I
*I *419:io_in[11] I *D spi_wrapper
*CAP
1 io_in[11] 0.000363112
2 *419:io_in[11] 0.00212986
3 *3:19 0.0154527
4 *3:18 0.0171394
5 *3:13 0.0488792
6 *3:11 0.0454258
7 *419:io_in[11] *24:19 0.00173674
8 *419:io_in[11] *41:9 0
9 *419:io_in[11] *78:13 0.0052842
10 *3:18 *30:12 0
11 *3:19 *419:io_in[36] 0.00815695
12 *3:19 *24:19 0.0478483
13 *3:19 *37:11 0.0083907
14 *3:19 *106:10 0
*RES
1 io_in[11] *3:11 3.195 
2 *3:11 *3:13 283.77 
3 *3:13 *3:18 36.99 
4 *3:18 *3:19 187.74 
5 *3:19 *419:io_in[11] 30.195 
*END

*D_NET *4 0.137713
*CONN
*P io_in[12] I
*I *419:io_in[12] I *D spi_wrapper
*CAP
1 io_in[12] 0.000167227
2 *419:io_in[12] 0.00599307
3 *4:19 0.00811529
4 *4:13 0.062696
5 *4:11 0.060741
6 *4:13 *43:8 0
7 *4:19 *43:8 0
*RES
1 io_in[12] *4:11 2.115 
2 *4:11 *4:13 471.42 
3 *4:13 *4:19 20.97 
4 *4:19 *419:io_in[12] 39.735 
*END

*D_NET *5 0.212325
*CONN
*P io_in[13] I
*I *419:io_in[13] I *D spi_wrapper
*CAP
1 io_in[13] 0.000470965
2 *419:io_in[13] 0.00467098
3 *5:11 0.0559882
4 *5:10 0.0513172
5 *5:8 0.00512204
6 *5:7 0.005593
7 *419:io_in[13] *42:11 0
8 *5:8 *6:8 0.000941448
9 *5:8 *43:11 0.0260673
10 *5:11 *44:14 0.0596019
11 *5:11 *63:10 0
12 *5:11 *81:16 0.00255195
13 *5:11 *98:14 0
*RES
1 io_in[13] *5:7 8.325 
2 *5:7 *5:8 74.43 
3 *5:8 *5:10 4.5 
4 *5:10 *5:11 475.65 
5 *5:11 *419:io_in[13] 34.425 
*END

*D_NET *6 0.244662
*CONN
*P io_in[14] I
*I *419:io_in[14] I *D spi_wrapper
*CAP
1 io_in[14] 0.000648266
2 *419:io_in[14] 0.00533828
3 *6:11 0.0700738
4 *6:10 0.0647355
5 *6:8 0.0102928
6 *6:7 0.0109411
7 *419:io_in[14] *44:13 0
8 *419:io_in[14] *81:16 0
9 *6:8 *43:11 0.0427711
10 *6:11 *80:10 0.0389199
11 *6:11 *98:14 0
12 *6:11 *108:14 0
13 *5:8 *6:8 0.000941448
*RES
1 io_in[14] *6:7 8.685 
2 *6:7 *6:8 135.45 
3 *6:8 *6:10 4.5 
4 *6:10 *6:11 469.71 
5 *6:11 *419:io_in[14] 39.195 
*END

*D_NET *7 0.175418
*CONN
*P io_in[15] I
*I *419:io_in[15] I *D spi_wrapper
*CAP
1 io_in[15] 0.0217662
2 *419:io_in[15] 0.00252146
3 *7:13 0.00821322
4 *7:8 0.0634214
5 *7:7 0.0577297
6 *7:5 0.0217662
*RES
1 io_in[15] *7:5 167.625 
2 *7:5 *7:7 4.5 
3 *7:7 *7:8 448.29 
4 *7:8 *7:13 44.37 
5 *7:13 *419:io_in[15] 16.065 
*END

*D_NET *8 0.146032
*CONN
*P io_in[16] I
*I *419:io_in[16] I *D spi_wrapper
*CAP
1 io_in[16] 0.000247817
2 *419:io_in[16] 0.000166616
3 *8:19 0.00850488
4 *8:18 0.00833827
5 *8:16 0.0428078
6 *8:15 0.0428078
7 *8:13 0.0214557
8 *8:11 0.0217036
9 *8:19 *83:10 0
10 *8:19 *83:11 0
*RES
1 io_in[16] *8:11 2.655 
2 *8:11 *8:13 164.97 
3 *8:13 *8:15 4.5 
4 *8:15 *8:16 332.19 
5 *8:16 *8:18 4.5 
6 *8:18 *8:19 56.61 
7 *8:19 *419:io_in[16] 1.305 
*END

*D_NET *9 0.116513
*CONN
*P io_in[17] I
*I *419:io_in[17] I *D spi_wrapper
*CAP
1 io_in[17] 0.0013584
2 *419:io_in[17] 9.76714e-05
3 *9:17 0.00954188
4 *9:16 0.00944421
5 *9:14 0.0279854
6 *9:13 0.0279854
7 *9:11 0.0192802
8 *9:10 0.0206386
9 *9:10 *46:14 0.000181847
*RES
1 io_in[17] *9:10 19.935 
2 *9:10 *9:11 148.05 
3 *9:11 *9:13 4.5 
4 *9:13 *9:14 217.35 
5 *9:14 *9:16 4.5 
6 *9:16 *9:17 64.71 
7 *9:17 *419:io_in[17] 0.765 
*END

*D_NET *10 0.0980981
*CONN
*P io_in[18] I
*I *419:io_in[18] I *D spi_wrapper
*CAP
1 io_in[18] 0.00100592
2 *419:io_in[18] 0.00239823
3 *10:11 0.0290993
4 *10:10 0.0267011
5 *10:8 0.00738712
6 *10:7 0.00839304
7 *10:8 io_oeb[18] 0.00556133
8 *10:8 *14:8 0.00162481
9 *10:8 *46:14 0.0159273
10 *10:11 *11:10 0
*RES
1 io_in[18] *10:7 12.285 
2 *10:7 *10:8 104.85 
3 *10:8 *10:10 4.5 
4 *10:10 *10:11 199.08 
5 *10:11 *419:io_in[18] 14.985 
*END

*D_NET *11 0.0626045
*CONN
*P io_in[19] I
*I *419:io_in[19] I *D spi_wrapper
*CAP
1 io_in[19] 0.00219666
2 *419:io_in[19] 0.00269608
3 *11:11 0.0291056
4 *11:10 0.0286062
5 *419:io_in[19] *86:7 0
6 *11:10 *16:8 0
7 *11:11 *14:11 0
8 *10:11 *11:10 0
*RES
1 io_in[19] *11:10 25.695 
2 *11:10 *11:11 197.1 
3 *11:11 *419:io_in[19] 17.055 
*END

*D_NET *12 0.586913
*CONN
*P io_in[1] I
*I *419:io_in[1] I *D spi_wrapper
*CAP
1 io_in[1] 0.000531237
2 *419:io_in[1] 0
3 *12:11 0.0386034
4 *12:10 0.0386034
5 *12:8 0.0441715
6 *12:7 0.0447027
7 *12:8 *88:11 0.25113
8 *12:11 *419:io_in[37] 0
9 *12:11 *20:13 0
10 *12:11 *58:5 0.0796111
11 *12:11 *75:5 0.0214749
12 *12:11 *96:16 0.0021269
13 *12:11 *96:18 0.0469222
14 *12:11 *112:12 0
15 *12:11 *114:21 0.00234702
16 *1:8 *12:8 0.000614513
17 *2:11 *12:11 0.016075
*RES
1 io_in[1] *12:7 8.685 
2 *12:7 *12:8 660.15 
3 *12:8 *12:10 4.5 
4 *12:10 *12:11 565.83 
5 *12:11 *419:io_in[1] 4.5 
*END

*D_NET *13 0.0919619
*CONN
*P io_in[20] I
*I *419:io_in[20] I *D spi_wrapper
*CAP
1 io_in[20] 0.00743856
2 *419:io_in[20] 0.00263641
3 *13:11 0.0228172
4 *13:10 0.0201808
5 *13:8 0.0157252
6 *13:7 0.0157252
7 *13:5 0.00743856
8 *419:io_in[20] *96:16 0
*RES
1 io_in[20] *13:5 56.925 
2 *13:5 *13:7 4.5 
3 *13:7 *13:8 121.59 
4 *13:8 *13:10 4.5 
5 *13:10 *13:11 149.94 
6 *13:11 *419:io_in[20] 16.695 
*END

*D_NET *14 0.139336
*CONN
*P io_in[21] I
*I *419:io_in[21] I *D spi_wrapper
*CAP
1 io_in[21] 0.0010289
2 *419:io_in[21] 0.00395101
3 *14:11 0.0308206
4 *14:10 0.0268696
5 *14:8 0.0149012
6 *14:7 0.0159301
7 *419:io_in[21] *32:11 0
8 *419:io_in[21] *55:11 7.7749e-07
9 *419:io_in[21] *62:8 0.0021427
10 *14:8 *16:8 0.0387853
11 *14:8 *46:14 0.00328093
12 *14:11 *48:5 0
13 *10:8 *14:8 0.00162481
14 *11:11 *14:11 0
*RES
1 io_in[21] *14:7 12.465 
2 *14:7 *14:8 218.07 
3 *14:8 *14:10 4.5 
4 *14:10 *14:11 200.25 
5 *14:11 *419:io_in[21] 41.445 
*END

*D_NET *15 0.150165
*CONN
*P io_in[22] I
*I *419:io_in[22] I *D spi_wrapper
*CAP
1 io_in[22] 0.00485065
2 *419:io_in[22] 9.76714e-05
3 *15:15 0.00988917
4 *15:14 0.00979149
5 *15:12 0.0450358
6 *15:11 0.0450358
7 *15:9 0.0153067
8 *15:7 0.0201573
9 *15:15 *16:11 0
10 *15:15 *90:7 0
*RES
1 io_in[22] *15:7 37.305 
2 *15:7 *15:9 117.54 
3 *15:9 *15:11 4.5 
4 *15:11 *15:12 351.09 
5 *15:12 *15:14 4.5 
6 *15:14 *15:15 67.41 
7 *15:15 *419:io_in[22] 0.765 
*END

*D_NET *16 0.205121
*CONN
*P io_in[23] I
*I *419:io_in[23] I *D spi_wrapper
*CAP
1 io_in[23] 0.00107486
2 *419:io_in[23] 0.00193847
3 *16:11 0.0295125
4 *16:10 0.0275741
5 *16:8 0.044132
6 *16:7 0.0452069
7 *419:io_in[23] *76:8 0.00393445
8 *419:io_in[23] *88:8 0
9 *16:8 *46:14 0.0129627
10 *11:10 *16:8 0
11 *14:8 *16:8 0.0387853
12 *15:15 *16:11 0
*RES
1 io_in[23] *16:7 12.825 
2 *16:7 *16:8 455.13 
3 *16:8 *16:10 4.5 
4 *16:10 *16:11 205.47 
5 *16:11 *419:io_in[23] 26.595 
*END

*D_NET *17 0.234644
*CONN
*P io_in[24] I
*I *419:io_in[24] I *D spi_wrapper
*CAP
1 io_in[24] 0.000201168
2 *419:io_in[24] 0.00172142
3 *17:16 0.0283631
4 *17:15 0.0266416
5 *17:13 0.0880048
6 *17:11 0.0882059
7 *419:io_in[24] *76:8 0.001506
8 *419:io_in[24] *88:8 0
9 *17:13 *83:14 0
*RES
1 io_in[24] *17:11 1.935 
2 *17:11 *17:13 557.01 
3 *17:13 *17:15 4.5 
4 *17:15 *17:16 198.81 
5 *17:16 *419:io_in[24] 20.655 
*END

*D_NET *18 0.218079
*CONN
*P io_in[25] I
*I *419:io_in[25] I *D spi_wrapper
*CAP
1 io_in[25] 0.000125876
2 *419:io_in[25] 0.00255057
3 *18:16 0.0193143
4 *18:15 0.0167637
5 *18:13 0.0895991
6 *18:11 0.089725
*RES
1 io_in[25] *18:11 1.395 
2 *18:11 *18:13 566.55 
3 *18:13 *18:15 4.5 
4 *18:15 *18:16 124.38 
5 *18:16 *419:io_in[25] 16.695 
*END

*D_NET *19 0.168372
*CONN
*P io_in[26] I
*I *419:io_in[26] I *D spi_wrapper
*CAP
1 io_in[26] 0.00177706
2 *419:io_in[26] 0.000166616
3 *19:12 0.0104043
4 *19:11 0.0102376
5 *19:9 0.0720048
6 *19:7 0.0737818
7 *19:9 *52:10 0
*RES
1 io_in[26] *19:7 13.185 
2 *19:7 *19:9 561.78 
3 *19:9 *19:11 4.5 
4 *19:11 *19:12 71.55 
5 *19:12 *419:io_in[26] 1.305 
*END

*D_NET *20 0.19339
*CONN
*P io_in[27] I
*I *419:io_in[27] I *D spi_wrapper
*CAP
1 io_in[27] 0.00035683
2 *419:io_in[27] 0.00021921
3 *20:13 0.0626975
4 *20:11 0.0628351
5 *20:13 *24:19 0.00321842
6 *20:13 *70:10 0.0108165
7 *20:13 *96:16 0.00165381
8 *20:13 *96:18 0
9 *20:13 *112:10 0.00532742
10 *20:13 *112:12 0.0462651
11 *12:11 *20:13 0
*RES
1 io_in[27] *20:11 3.015 
2 *20:11 *20:13 583.47 
3 *20:13 *419:io_in[27] 5.805 
*END

*D_NET *21 0.215216
*CONN
*P io_in[28] I
*I *419:io_in[28] I *D spi_wrapper
*CAP
1 io_in[28] 0.000249598
2 *419:io_in[28] 0.000284349
3 *21:19 0.0104003
4 *21:18 0.010116
5 *21:16 0.00836885
6 *21:15 0.00836885
7 *21:13 0.0483333
8 *21:11 0.0485829
9 *21:16 *70:11 0
10 *21:19 *25:15 0
11 *21:19 *27:19 0.0131154
12 *21:19 *38:19 0.0574247
13 *21:19 *77:9 0.000119855
14 *21:19 *114:5 8.65999e-05
15 *2:11 *21:19 0.00976509
*RES
1 io_in[28] *21:11 2.475 
2 *21:11 *21:13 376.11 
3 *21:13 *21:15 4.5 
4 *21:15 *21:16 64.17 
5 *21:16 *21:18 4.5 
6 *21:18 *21:19 215.01 
7 *21:19 *419:io_in[28] 15.21 
*END

*D_NET *22 0.256569
*CONN
*P io_in[29] I
*I *419:io_in[29] I *D spi_wrapper
*CAP
1 io_in[29] 0.00117627
2 *419:io_in[29] 0.00098886
3 *22:11 0.0497075
4 *22:10 0.0487186
5 *22:8 0.0180922
6 *22:7 0.0192684
7 *419:io_in[29] *60:13 0
8 *22:11 *28:19 0.00297506
9 *22:11 *42:10 0.000555979
10 *22:11 *46:10 0.00100355
11 *22:11 *49:8 0.00560409
12 *22:11 *50:8 0.0830318
13 *22:11 *51:8 0.00763711
14 *22:11 *54:8 0
15 *22:11 *83:10 0.00103135
16 *22:11 *86:8 0.00762429
17 *22:11 *92:8 0.00915352
*RES
1 io_in[29] *22:7 13.365 
2 *22:7 *22:8 138.87 
3 *22:8 *22:10 4.5 
4 *22:10 *22:11 589.77 
5 *22:11 *419:io_in[29] 11.205 
*END

*D_NET *23 0.766194
*CONN
*P io_in[2] I
*I *419:io_in[2] I *D spi_wrapper
*CAP
1 io_in[2] 0.000466564
2 *419:io_in[2] 0.00180603
3 *23:11 0.0393385
4 *23:10 0.0375325
5 *23:8 0.00151262
6 *23:7 0.00197918
7 *23:8 *32:8 0.000880038
8 *23:8 *50:11 0.237241
9 *23:8 *61:11 0.220608
10 *23:8 *88:11 0.000428605
11 *23:11 *33:11 0.216571
12 *23:11 *68:8 0.00284449
13 *1:8 *23:8 0.00498466
*RES
1 io_in[2] *23:7 8.145 
2 *23:7 *23:8 608.85 
3 *23:8 *23:10 4.5 
4 *23:10 *23:11 558.81 
5 *23:11 *419:io_in[2] 16.605 
*END

*D_NET *24 0.295046
*CONN
*P io_in[30] I
*I *419:io_in[30] I *D spi_wrapper
*CAP
1 io_in[30] 0.000113196
2 *419:io_in[30] 0.000318455
3 *24:19 0.00870298
4 *24:18 0.00838453
5 *24:16 0.0264371
6 *24:15 0.0264371
7 *24:13 0.0478937
8 *24:11 0.0480068
9 *24:19 *37:11 0.0659436
10 *24:19 *70:10 0.00332678
11 *24:19 *78:13 0.00629451
12 *24:19 *112:10 0.000383322
13 *419:io_in[11] *24:19 0.00173674
14 *3:19 *24:19 0.0478483
15 *20:13 *24:19 0.00321842
*RES
1 io_in[30] *24:11 1.395 
2 *24:11 *24:13 373.41 
3 *24:13 *24:15 4.5 
4 *24:15 *24:16 203.31 
5 *24:16 *24:18 4.5 
6 *24:18 *24:19 232.83 
7 *24:19 *419:io_in[30] 6.525 
*END

*D_NET *25 0.325649
*CONN
*P io_in[31] I
*I *419:io_in[31] I *D spi_wrapper
*CAP
1 io_in[31] 0.00177706
2 *419:io_in[31] 0
3 *25:15 0.00800741
4 *25:14 0.00800741
5 *25:12 0.0347722
6 *25:11 0.0347722
7 *25:9 0.0428892
8 *25:7 0.0446663
9 *25:15 *27:19 0
10 *25:15 *58:5 0.0147383
11 *25:15 *75:5 0.068486
12 *25:15 *77:9 0.00170624
13 *25:15 *96:18 0.00110398
14 *25:15 *114:5 0.0644732
15 *419:io_in[0] *25:15 0.000249634
16 *21:19 *25:15 0
*RES
1 io_in[31] *25:7 13.185 
2 *25:7 *25:9 336.24 
3 *25:9 *25:11 4.5 
4 *25:11 *25:12 267.93 
5 *25:12 *25:14 4.5 
6 *25:14 *25:15 264.69 
7 *25:15 *419:io_in[31] 4.5 
*END

*D_NET *26 0.323564
*CONN
*P io_in[32] I
*I *419:io_in[32] I *D spi_wrapper
*CAP
1 io_in[32] 0.000323383
2 *419:io_in[32] 0.00155329
3 *26:19 0.0187803
4 *26:18 0.017227
5 *26:16 0.0454392
6 *26:15 0.0454392
7 *26:13 0.0474807
8 *26:11 0.047804
9 *26:19 *64:8 0.0995173
*RES
1 io_in[32] *26:11 3.015 
2 *26:11 *26:13 370.71 
3 *26:13 *26:15 4.5 
4 *26:15 *26:16 349.11 
5 *26:16 *26:18 4.5 
6 *26:18 *26:19 250.65 
7 *26:19 *419:io_in[32] 14.625 
*END

*D_NET *27 0.384325
*CONN
*P io_in[33] I
*I *419:io_in[33] I *D spi_wrapper
*CAP
1 io_in[33] 0.000242542
2 *419:io_in[33] 0.000225601
3 *27:19 0.00220496
4 *27:18 0.00197936
5 *27:16 0.0523574
6 *27:15 0.0523574
7 *27:13 0.0471058
8 *27:11 0.0473484
9 *27:19 *38:19 0.0725828
10 *27:19 *71:9 0.0866509
11 *27:19 *100:9 0.00815457
12 *21:19 *27:19 0.0131154
13 *25:15 *27:19 0
*RES
1 io_in[33] *27:11 2.475 
2 *27:11 *27:13 368.01 
3 *27:13 *27:15 4.5 
4 *27:15 *27:16 404.01 
5 *27:16 *27:18 4.5 
6 *27:18 *27:19 260.91 
7 *27:19 *419:io_in[33] 15.03 
*END

*D_NET *28 0.412945
*CONN
*P io_in[34] I
*I *419:io_in[34] I *D spi_wrapper
*CAP
1 io_in[34] 0.000177869
2 *419:io_in[34] 0.00106011
3 *28:19 0.00728016
4 *28:18 0.00622005
5 *28:16 0.0625372
6 *28:15 0.0625372
7 *28:13 0.0467267
8 *28:11 0.0469046
9 *419:io_in[34] *66:13 0
10 *28:19 *50:8 0.00140765
11 *28:19 *61:8 0.0950781
12 *28:19 *74:8 0.08004
13 *22:11 *28:19 0.00297506
*RES
1 io_in[34] *28:11 1.935 
2 *28:11 *28:13 365.31 
3 *28:13 *28:15 4.5 
4 *28:15 *28:16 481.23 
5 *28:16 *28:18 4.5 
6 *28:18 *28:19 271.17 
7 *28:19 *419:io_in[34] 11.745 
*END

*D_NET *29 0.462147
*CONN
*P io_in[35] I
*I *419:io_in[35] I *D spi_wrapper
*CAP
1 io_in[35] 0.000113196
2 *419:io_in[35] 0.00187733
3 *29:19 0.00563228
4 *29:18 0.00375495
5 *29:16 0.0720034
6 *29:15 0.0720034
7 *29:13 0.0452541
8 *29:11 0.0453673
9 *419:io_in[35] *67:13 0
10 *29:19 *62:8 0.101072
11 *29:19 *68:8 0.115068
*RES
1 io_in[35] *29:11 1.395 
2 *29:11 *29:13 354.51 
3 *29:13 *29:15 4.5 
4 *29:15 *29:16 554.13 
5 *29:16 *29:18 4.5 
6 *29:18 *29:19 289.53 
7 *29:19 *419:io_in[35] 17.145 
*END

*D_NET *30 0.347247
*CONN
*P io_in[36] I
*I *419:io_in[36] I *D spi_wrapper
*CAP
1 io_in[36] 0.00177706
2 *419:io_in[36] 0.00040045
3 *30:12 0.0796742
4 *30:11 0.0792737
5 *30:9 0.0840154
6 *30:7 0.0857925
7 *419:io_in[36] *37:11 0.00815695
8 *3:18 *30:12 0
9 *3:19 *419:io_in[36] 0.00815695
*RES
1 io_in[36] *30:7 13.185 
2 *30:7 *30:9 658.98 
3 *30:9 *30:11 4.5 
4 *30:11 *30:12 611.01 
5 *30:12 *419:io_in[36] 31.455 
*END

*D_NET *31 0.360294
*CONN
*P io_in[37] I
*I *419:io_in[37] I *D spi_wrapper
*CAP
1 io_in[37] 0.000323383
2 *419:io_in[37] 0.00148364
3 *31:16 0.0897095
4 *31:15 0.0882259
5 *31:13 0.0865137
6 *31:11 0.0868371
7 *419:io_in[37] *112:12 0.00720108
8 *12:11 *419:io_in[37] 0
*RES
1 io_in[37] *31:11 3.015 
2 *31:11 *31:13 677.25 
3 *31:13 *31:15 4.5 
4 *31:15 *31:16 680.49 
5 *31:16 *419:io_in[37] 28.575 
*END

*D_NET *32 0.62449
*CONN
*P io_in[3] I
*I *419:io_in[3] I *D spi_wrapper
*CAP
1 io_in[3] 0.000423463
2 *419:io_in[3] 0.00228219
3 *32:11 0.0583518
4 *32:10 0.0560696
5 *32:8 0.00178454
6 *32:7 0.00220801
7 *32:8 *33:8 0.0204904
8 *32:8 *35:8 0.000202787
9 *32:8 *61:11 0.212245
10 *32:11 *55:10 0
11 *32:11 *66:14 0.0930585
12 *32:11 *67:14 0.00141402
13 *32:11 *73:10 0.0062273
14 *419:io_in[21] *32:11 0
15 *1:8 *32:8 0.135155
16 *2:8 *32:8 0.0336964
17 *23:8 *32:8 0.000880038
*RES
1 io_in[3] *32:7 7.785 
2 *32:7 *32:8 547.83 
3 *32:8 *32:10 4.5 
4 *32:10 *32:11 551.79 
5 *32:11 *419:io_in[3] 19.665 
*END

*D_NET *33 0.700223
*CONN
*P io_in[4] I
*I *419:io_in[4] I *D spi_wrapper
*CAP
1 io_in[4] 0.00045608
2 *419:io_in[4] 0.00215776
3 *33:11 0.0233327
4 *33:10 0.0211749
5 *33:8 0.00557387
6 *33:7 0.00602995
7 *33:8 *34:8 0.163154
8 *33:8 *35:8 0.000472264
9 *33:11 *68:8 0.0970122
10 *1:8 *33:8 0.110109
11 *2:8 *33:8 0.0336884
12 *23:11 *33:11 0.216571
13 *32:8 *33:8 0.0204904
*RES
1 io_in[4] *33:7 7.425 