*SPEF "ieee 1481-1999"
*DESIGN "user_proj_example"
*DATE "11:11:11 Fri 11 11, 1111"
*VENDOR "OpenRCX"
*PROGRAM "Parallel Extraction"
*VERSION "1.0"
*DESIGN_FLOW "NAME_SCOPE LOCAL" "PIN_CAP NONE"
*DIVIDER /
*DELIMITER :
*BUS_DELIMITER []
*T_UNIT 1 NS
*C_UNIT 1 PF
*R_UNIT 1 OHM
*L_UNIT 1 HENRY

*NAME_MAP
*1 io_in[0]
*2 io_in[10]
*3 io_in[11]
*4 io_in[12]
*5 io_in[13]
*6 io_in[14]
*7 io_in[15]
*8 io_in[16]
*9 io_in[17]
*10 io_in[18]
*11 io_in[19]
*12 io_in[1]
*13 io_in[20]
*14 io_in[21]
*15 io_in[22]
*16 io_in[23]
*17 io_in[24]
*18 io_in[25]
*19 io_in[26]
*20 io_in[27]
*21 io_in[28]
*22 io_in[29]
*23 io_in[2]
*24 io_in[30]
*25 io_in[31]
*26 io_in[32]
*27 io_in[33]
*28 io_in[34]
*29 io_in[35]
*30 io_in[36]
*31 io_in[37]
*32 io_in[3]
*33 io_in[4]
*34 io_in[5]
*35 io_in[6]
*36 io_in[7]
*37 io_in[8]
*38 io_in[9]
*39 io_oeb[0]
*40 io_oeb[10]
*41 io_oeb[11]
*42 io_oeb[12]
*43 io_oeb[13]
*44 io_oeb[14]
*45 io_oeb[15]
*46 io_oeb[16]
*47 io_oeb[17]
*48 io_oeb[18]
*49 io_oeb[19]
*50 io_oeb[1]
*51 io_oeb[20]
*52 io_oeb[21]
*53 io_oeb[22]
*54 io_oeb[23]
*55 io_oeb[24]
*56 io_oeb[25]
*57 io_oeb[26]
*58 io_oeb[27]
*59 io_oeb[28]
*60 io_oeb[29]
*61 io_oeb[2]
*62 io_oeb[30]
*63 io_oeb[31]
*64 io_oeb[32]
*65 io_oeb[33]
*66 io_oeb[34]
*67 io_oeb[35]
*68 io_oeb[36]
*69 net308
*70 io_oeb[3]
*71 io_oeb[4]
*72 io_oeb[5]
*73 io_oeb[6]
*74 io_oeb[7]
*75 io_oeb[8]
*76 io_oeb[9]
*77 io_out[0]
*78 io_out[10]
*79 io_out[11]
*80 io_out[12]
*81 io_out[13]
*82 io_out[14]
*83 io_out[15]
*84 io_out[16]
*85 io_out[17]
*86 io_out[18]
*87 io_out[19]
*88 io_out[1]
*89 io_out[20]
*90 io_out[21]
*91 io_out[22]
*92 io_out[23]
*93 io_out[24]
*94 io_out[25]
*95 io_out[26]
*96 io_out[27]
*97 io_out[28]
*98 io_out[29]
*99 io_out[2]
*100 io_out[30]
*101 io_out[31]
*102 net309
*103 net310
*104 net311
*105 net312
*106 net313
*107 net314
*108 io_out[3]
*109 io_out[4]
*110 io_out[5]
*111 io_out[6]
*112 io_out[7]
*113 io_out[8]
*114 io_out[9]
*115 net315
*116 net316
*117 net317
*118 la_data_in[0]
*119 la_data_in[100]
*120 la_data_in[101]
*121 la_data_in[102]
*122 la_data_in[103]
*123 la_data_in[104]
*124 la_data_in[105]
*125 la_data_in[106]
*126 la_data_in[107]
*127 la_data_in[108]
*128 la_data_in[109]
*129 la_data_in[10]
*130 la_data_in[110]
*131 la_data_in[111]
*132 la_data_in[112]
*133 la_data_in[113]
*134 la_data_in[114]
*135 la_data_in[115]
*136 la_data_in[116]
*137 la_data_in[117]
*138 la_data_in[118]
*139 la_data_in[119]
*140 la_data_in[11]
*141 la_data_in[120]
*142 la_data_in[121]
*143 la_data_in[122]
*144 la_data_in[123]
*145 la_data_in[124]
*146 la_data_in[125]
*147 la_data_in[126]
*148 la_data_in[127]
*149 la_data_in[12]
*150 la_data_in[13]
*151 la_data_in[14]
*152 la_data_in[15]
*153 la_data_in[16]
*154 la_data_in[17]
*155 la_data_in[18]
*156 la_data_in[19]
*157 la_data_in[1]
*158 la_data_in[20]
*159 la_data_in[21]
*160 la_data_in[22]
*161 la_data_in[23]
*162 la_data_in[24]
*163 la_data_in[25]
*164 la_data_in[26]
*165 la_data_in[27]
*166 la_data_in[28]
*167 la_data_in[29]
*168 la_data_in[2]
*169 la_data_in[30]
*170 la_data_in[31]
*171 la_data_in[32]
*172 la_data_in[33]
*173 la_data_in[34]
*174 la_data_in[35]
*175 la_data_in[36]
*176 la_data_in[37]
*177 la_data_in[38]
*178 la_data_in[39]
*179 la_data_in[3]
*180 la_data_in[40]
*181 la_data_in[41]
*182 la_data_in[42]
*183 la_data_in[43]
*184 la_data_in[44]
*185 la_data_in[45]
*186 la_data_in[46]
*187 la_data_in[47]
*188 la_data_in[48]
*189 la_data_in[49]
*190 la_data_in[4]
*191 la_data_in[50]
*192 la_data_in[51]
*193 la_data_in[52]
*194 la_data_in[53]
*195 la_data_in[54]
*196 la_data_in[55]
*197 la_data_in[56]
*198 la_data_in[57]
*199 la_data_in[58]
*200 la_data_in[59]
*201 la_data_in[5]
*202 la_data_in[60]
*203 la_data_in[61]
*204 la_data_in[62]
*205 la_data_in[63]
*206 la_data_in[64]
*207 la_data_in[65]
*208 la_data_in[66]
*209 la_data_in[67]
*210 la_data_in[68]
*211 la_data_in[69]
*212 la_data_in[6]
*213 la_data_in[70]
*214 la_data_in[71]
*215 la_data_in[72]
*216 la_data_in[73]
*217 la_data_in[74]
*218 la_data_in[75]
*219 la_data_in[76]
*220 la_data_in[77]
*221 la_data_in[78]
*222 la_data_in[79]
*223 la_data_in[7]
*224 la_data_in[80]
*225 la_data_in[81]
*226 la_data_in[82]
*227 la_data_in[83]
*228 la_data_in[84]
*229 la_data_in[85]
*230 la_data_in[86]
*231 la_data_in[87]
*232 la_data_in[88]
*233 la_data_in[89]
*234 la_data_in[8]
*235 la_data_in[90]
*236 la_data_in[91]
*237 la_data_in[92]
*238 la_data_in[93]
*239 la_data_in[94]
*240 la_data_in[95]
*241 la_data_in[96]
*242 la_data_in[97]
*243 la_data_in[98]
*244 la_data_in[99]
*245 la_data_in[9]
*246 la_data_out[0]
*247 net386
*248 net387
*249 net388
*250 net389
*251 net390
*252 net391
*253 net392
*254 net393
*255 net394
*256 net395
*257 la_data_out[10]
*258 net396
*259 net397
*260 net398
*261 net399
*262 net400
*263 net401
*264 net402
*265 net403
*266 net404
*267 net405
*268 la_data_out[11]
*269 net406
*270 net407
*271 net408
*272 net409
*273 net410
*274 net411
*275 net412
*276 net413
*277 la_data_out[12]
*278 la_data_out[13]
*279 la_data_out[14]
*280 la_data_out[15]
*281 la_data_out[16]
*282 la_data_out[17]
*283 la_data_out[18]
*284 la_data_out[19]
*285 la_data_out[1]
*286 la_data_out[20]
*287 la_data_out[21]
*288 la_data_out[22]
*289 la_data_out[23]
*290 la_data_out[24]
*291 la_data_out[25]
*292 la_data_out[26]
*293 la_data_out[27]
*294 la_data_out[28]
*295 la_data_out[29]
*296 la_data_out[2]
*297 la_data_out[30]
*298 la_data_out[31]
*299 net318
*300 net319
*301 net320
*302 net321
*303 net322
*304 net323
*305 net324
*306 net325
*307 la_data_out[3]
*308 net326
*309 net327
*310 net328
*311 net329
*312 net330
*313 net331
*314 net332
*315 net333
*316 net334
*317 net335
*318 la_data_out[4]
*319 net336
*320 net337
*321 net338
*322 net339
*323 net340
*324 net341
*325 net342
*326 net343
*327 net344
*328 net345
*329 la_data_out[5]
*330 net346
*331 net347
*332 net348
*333 net349
*334 net350
*335 net351
*336 net352
*337 net353
*338 net354
*339 net355
*340 la_data_out[6]
*341 net356
*342 net357
*343 net358
*344 net359
*345 net360
*346 net361
*347 net362
*348 net363
*349 net364
*350 net365
*351 la_data_out[7]
*352 net366
*353 net367
*354 net368
*355 net369
*356 net370
*357 net371
*358 net372
*359 net373
*360 net374
*361 net375
*362 la_data_out[8]
*363 net376
*364 net377
*365 net378
*366 net379
*367 net380
*368 net381
*369 net382
*370 net383
*371 net384
*372 net385
*373 la_data_out[9]
*374 la_oenb[0]
*375 la_oenb[100]
*376 la_oenb[101]
*377 la_oenb[102]
*378 la_oenb[103]
*379 la_oenb[104]
*380 la_oenb[105]
*381 la_oenb[106]
*382 la_oenb[107]
*383 la_oenb[108]
*384 la_oenb[109]
*385 la_oenb[10]
*386 la_oenb[110]
*387 la_oenb[111]
*388 la_oenb[112]
*389 la_oenb[113]
*390 la_oenb[114]
*391 la_oenb[115]
*392 la_oenb[116]
*393 la_oenb[117]
*394 la_oenb[118]
*395 la_oenb[119]
*396 la_oenb[11]
*397 la_oenb[120]
*398 la_oenb[121]
*399 la_oenb[122]
*400 la_oenb[123]
*401 la_oenb[124]
*402 la_oenb[125]
*403 la_oenb[126]
*404 la_oenb[127]
*405 la_oenb[12]
*406 la_oenb[13]
*407 la_oenb[14]
*408 la_oenb[15]
*409 la_oenb[16]
*410 la_oenb[17]
*411 la_oenb[18]
*412 la_oenb[19]
*413 la_oenb[1]
*414 la_oenb[20]
*415 la_oenb[21]
*416 la_oenb[22]
*417 la_oenb[23]
*418 la_oenb[24]
*419 la_oenb[25]
*420 la_oenb[26]
*421 la_oenb[27]
*422 la_oenb[28]
*423 la_oenb[29]
*424 la_oenb[2]
*425 la_oenb[30]
*426 la_oenb[31]
*427 la_oenb[32]
*428 la_oenb[33]
*429 la_oenb[34]
*430 la_oenb[35]
*431 la_oenb[36]
*432 la_oenb[37]
*433 la_oenb[38]
*434 la_oenb[39]
*435 la_oenb[3]
*436 la_oenb[40]
*437 la_oenb[41]
*438 la_oenb[42]
*439 la_oenb[43]
*440 la_oenb[44]
*441 la_oenb[45]
*442 la_oenb[46]
*443 la_oenb[47]
*444 la_oenb[48]
*445 la_oenb[49]
*446 la_oenb[4]
*447 la_oenb[50]
*448 la_oenb[51]
*449 la_oenb[52]
*450 la_oenb[53]
*451 la_oenb[54]
*452 la_oenb[55]
*453 la_oenb[56]
*454 la_oenb[57]
*455 la_oenb[58]
*456 la_oenb[59]
*457 la_oenb[5]
*458 la_oenb[60]
*459 la_oenb[61]
*460 la_oenb[62]
*461 la_oenb[63]
*462 la_oenb[64]
*463 la_oenb[65]
*464 la_oenb[66]
*465 la_oenb[67]
*466 la_oenb[68]
*467 la_oenb[69]
*468 la_oenb[6]
*469 la_oenb[70]
*470 la_oenb[71]
*471 la_oenb[72]
*472 la_oenb[73]
*473 la_oenb[74]
*474 la_oenb[75]
*475 la_oenb[76]
*476 la_oenb[77]
*477 la_oenb[78]
*478 la_oenb[79]
*479 la_oenb[7]
*480 la_oenb[80]
*481 la_oenb[81]
*482 la_oenb[82]
*483 la_oenb[83]
*484 la_oenb[84]
*485 la_oenb[85]
*486 la_oenb[86]
*487 la_oenb[87]
*488 la_oenb[88]
*489 la_oenb[89]
*490 la_oenb[8]
*491 la_oenb[90]
*492 la_oenb[91]
*493 la_oenb[92]
*494 la_oenb[93]
*495 la_oenb[94]
*496 la_oenb[95]
*497 la_oenb[96]
*498 la_oenb[97]
*499 la_oenb[98]
*500 la_oenb[99]
*501 la_oenb[9]
*504 wb_clk_i
*505 wb_rst_i
*506 wbs_ack_o
*507 wbs_adr_i[0]
*508 wbs_adr_i[10]
*509 wbs_adr_i[11]
*510 wbs_adr_i[12]
*511 wbs_adr_i[13]
*512 wbs_adr_i[14]
*513 wbs_adr_i[15]
*514 wbs_adr_i[16]
*515 wbs_adr_i[17]
*516 wbs_adr_i[18]
*517 wbs_adr_i[19]
*518 wbs_adr_i[1]
*519 wbs_adr_i[20]
*520 wbs_adr_i[21]
*521 wbs_adr_i[22]
*522 wbs_adr_i[23]
*523 wbs_adr_i[24]
*524 wbs_adr_i[25]
*525 wbs_adr_i[26]
*526 wbs_adr_i[27]
*527 wbs_adr_i[28]
*528 wbs_adr_i[29]
*529 wbs_adr_i[2]
*530 wbs_adr_i[30]
*531 wbs_adr_i[31]
*532 wbs_adr_i[3]
*533 wbs_adr_i[4]
*534 wbs_adr_i[5]
*535 wbs_adr_i[6]
*536 wbs_adr_i[7]
*537 wbs_adr_i[8]
*538 wbs_adr_i[9]
*539 wbs_cyc_i
*540 wbs_dat_i[0]
*541 wbs_dat_i[10]
*542 wbs_dat_i[11]
*543 wbs_dat_i[12]
*544 wbs_dat_i[13]
*545 wbs_dat_i[14]
*546 wbs_dat_i[15]
*547 wbs_dat_i[16]
*548 wbs_dat_i[17]
*549 wbs_dat_i[18]
*550 wbs_dat_i[19]
*551 wbs_dat_i[1]
*552 wbs_dat_i[20]
*553 wbs_dat_i[21]
*554 wbs_dat_i[22]
*555 wbs_dat_i[23]
*556 wbs_dat_i[24]
*557 wbs_dat_i[25]
*558 wbs_dat_i[26]
*559 wbs_dat_i[27]
*560 wbs_dat_i[28]
*561 wbs_dat_i[29]
*562 wbs_dat_i[2]
*563 wbs_dat_i[30]
*564 wbs_dat_i[31]
*565 wbs_dat_i[3]
*566 wbs_dat_i[4]
*567 wbs_dat_i[5]
*568 wbs_dat_i[6]
*569 wbs_dat_i[7]
*570 wbs_dat_i[8]
*571 wbs_dat_i[9]
*572 wbs_dat_o[0]
*573 wbs_dat_o[10]
*574 wbs_dat_o[11]
*575 wbs_dat_o[12]
*576 wbs_dat_o[13]
*577 wbs_dat_o[14]
*578 wbs_dat_o[15]
*579 wbs_dat_o[16]
*580 wbs_dat_o[17]
*581 wbs_dat_o[18]
*582 wbs_dat_o[19]
*583 wbs_dat_o[1]
*584 wbs_dat_o[20]
*585 wbs_dat_o[21]
*586 wbs_dat_o[22]
*587 wbs_dat_o[23]
*588 wbs_dat_o[24]
*589 wbs_dat_o[25]
*590 wbs_dat_o[26]
*591 wbs_dat_o[27]
*592 wbs_dat_o[28]
*593 wbs_dat_o[29]
*594 wbs_dat_o[2]
*595 wbs_dat_o[30]
*596 wbs_dat_o[31]
*597 wbs_dat_o[3]
*598 wbs_dat_o[4]
*599 wbs_dat_o[5]
*600 wbs_dat_o[6]
*601 wbs_dat_o[7]
*602 wbs_dat_o[8]
*603 wbs_dat_o[9]
*604 wbs_sel_i[0]
*605 wbs_sel_i[1]
*606 wbs_sel_i[2]
*607 wbs_sel_i[3]
*608 wbs_stb_i
*609 wbs_we_i
*610 _000_
*611 _001_
*612 _002_
*613 _003_
*614 _004_
*615 _005_
*616 _006_
*617 _007_
*618 _008_
*619 _009_
*620 _010_
*621 _011_
*622 _012_
*623 _013_
*624 _014_
*625 _015_
*626 _016_
*627 _017_
*628 _018_
*629 _019_
*630 _020_
*631 _021_
*632 _022_
*633 _023_
*634 _024_
*635 _025_
*636 _026_
*637 _027_
*638 _028_
*639 _029_
*640 _030_
*641 _031_
*642 _032_
*643 _033_
*644 _034_
*645 _035_
*646 _036_
*647 _037_
*648 _038_
*649 _039_
*650 _040_
*651 _041_
*652 _042_
*653 _043_
*654 _044_
*655 _045_
*656 _046_
*657 _047_
*658 _048_
*659 _049_
*660 _050_
*661 _051_
*662 _052_
*663 _053_
*664 _054_
*665 _055_
*666 _056_
*667 _057_
*668 _058_
*669 _059_
*670 _060_
*671 _061_
*672 _062_
*673 _063_
*674 _064_
*675 _065_
*676 _066_
*677 _067_
*678 _068_
*679 _069_
*680 _070_
*681 _071_
*682 _072_
*683 _073_
*684 _074_
*685 _075_
*686 _076_
*687 _077_
*688 _078_
*689 _079_
*690 _080_
*691 _081_
*692 _082_
*693 _083_
*694 _084_
*695 _085_
*696 _086_
*697 _087_
*698 _088_
*699 _089_
*700 _090_
*701 _091_
*702 _092_
*703 _093_
*704 _094_
*705 _095_
*706 _096_
*707 _097_
*708 _098_
*709 _099_
*710 _100_
*711 _101_
*712 _102_
*713 _103_
*714 _104_
*715 _105_
*716 _106_
*717 _107_
*718 _108_
*719 _109_
*720 _110_
*721 _111_
*722 _112_
*723 _113_
*724 _114_
*725 _115_
*726 _116_
*727 _117_
*728 _118_
*729 _119_
*730 _120_
*731 _121_
*732 _122_
*733 _123_
*734 _124_
*735 _125_
*736 _126_
*737 _127_
*738 _128_
*739 _129_
*740 _130_
*741 _131_
*742 _132_
*743 _133_
*744 _134_
*745 _135_
*746 _136_
*747 _137_
*748 _138_
*749 _139_
*750 _140_
*751 _141_
*752 _142_
*753 _143_
*754 _144_
*755 _145_
*756 _146_
*757 _147_
*758 _148_
*759 _149_
*760 _150_
*761 _151_
*762 _152_
*763 _153_
*764 _154_
*765 _155_
*766 _156_
*767 _157_
*768 _158_
*769 _159_
*770 _160_
*771 _161_
*772 _162_
*773 _163_
*774 _164_
*775 _165_
*776 _166_
*777 _167_
*778 _168_
*779 _169_
*780 _170_
*781 _171_
*782 _172_
*783 _173_
*784 _174_
*785 _175_
*786 _176_
*787 _177_
*788 _178_
*789 _179_
*790 _180_
*791 _181_
*792 _182_
*793 _183_
*794 _184_
*795 _185_
*796 _186_
*797 _187_
*798 _188_
*799 _189_
*800 _190_
*801 _191_
*802 _192_
*803 _193_
*804 _194_
*805 _195_
*806 _196_
*807 _197_
*808 _198_
*809 _199_
*810 _200_
*811 _201_
*812 _202_
*813 _203_
*814 _204_
*815 _205_
*816 _206_
*817 _207_
*818 _208_
*819 _209_
*820 _210_
*821 _211_
*822 _212_
*823 _213_
*824 _214_
*825 _215_
*826 _216_
*827 _217_
*828 _218_
*829 _219_
*830 _220_
*831 _221_
*832 _222_
*833 _223_
*834 _224_
*835 _225_
*836 _226_
*837 _227_
*838 _228_
*839 _229_
*840 _230_
*841 _231_
*842 _232_
*843 _233_
*844 _234_
*845 _235_
*846 _236_
*847 _237_
*848 _238_
*849 _239_
*850 _240_
*851 _241_
*852 _242_
*853 _243_
*854 _244_
*855 _245_
*856 _246_
*857 _247_
*858 _248_
*859 _249_
*860 _250_
*861 _251_
*862 _252_
*863 _253_
*864 _254_
*865 _255_
*866 _256_
*867 _257_
*868 _258_
*869 _259_
*870 _260_
*871 _261_
*872 _262_
*873 _263_
*874 _264_
*875 _265_
*876 _266_
*877 _267_
*878 _268_
*879 _269_
*880 _270_
*881 _271_
*882 _272_
*883 _273_
*884 _274_
*885 _275_
*886 _276_
*887 _277_
*888 _278_
*889 _279_
*890 _280_
*891 _281_
*892 _282_
*893 _283_
*894 _284_
*895 _285_
*896 _286_
*897 _287_
*898 _288_
*899 _289_
*900 _290_
*901 _291_
*902 _292_
*903 _293_
*904 _294_
*905 _295_
*906 _296_
*907 _297_
*908 _298_
*909 _299_
*910 _300_
*911 _301_
*912 _302_
*913 _303_
*914 _304_
*915 _305_
*916 _306_
*917 _307_
*918 _308_
*919 _309_
*920 _310_
*921 _311_
*922 _312_
*923 _313_
*924 _314_
*925 _315_
*926 _316_
*927 _317_
*928 _318_
*929 _319_
*930 _320_
*931 _321_
*932 _322_
*933 _323_
*934 _324_
*935 _325_
*936 _326_
*937 _327_
*938 _328_
*939 _329_
*940 _330_
*941 _331_
*942 _332_
*943 _333_
*944 _334_
*945 _335_
*946 _336_
*947 _337_
*948 _338_
*949 _339_
*950 _340_
*951 _341_
*952 _342_
*953 _343_
*954 _344_
*955 _345_
*956 _346_
*957 clknet_0_counter\.clk
*958 clknet_3_0__leaf_counter\.clk
*959 clknet_3_1__leaf_counter\.clk
*960 clknet_3_2__leaf_counter\.clk
*961 clknet_3_3__leaf_counter\.clk
*962 clknet_3_4__leaf_counter\.clk
*963 clknet_3_5__leaf_counter\.clk
*964 clknet_3_6__leaf_counter\.clk
*965 clknet_3_7__leaf_counter\.clk
*966 counter\.clk
*967 net1
*968 net10
*969 net100
*970 net101
*971 net102
*972 net103
*973 net104
*974 net105
*975 net106
*976 net107
*977 net108
*978 net109
*979 net11
*980 net110
*981 net111
*982 net112
*983 net113
*984 net114
*985 net115
*986 net116
*987 net117
*988 net118
*989 net119
*990 net12
*991 net120
*992 net121
*993 net122
*994 net123
*995 net124
*996 net125
*997 net126
*998 net127
*999 net128
*1000 net129
*1001 net13
*1002 net130
*1003 net131
*1004 net132
*1005 net133
*1006 net134
*1007 net135
*1008 net136
*1009 net137
*1010 net138
*1011 net139
*1012 net14
*1013 net140
*1014 net141
*1015 net142
*1016 net143
*1017 net144
*1018 net145
*1019 net146
*1020 net147
*1021 net148
*1022 net149
*1023 net15
*1024 net150
*1025 net151
*1026 net152
*1027 net153
*1028 net154
*1029 net155
*1030 net156
*1031 net157
*1032 net158
*1033 net159
*1034 net16
*1035 net160
*1036 net161
*1037 net162
*1038 net163
*1039 net164
*1040 net165
*1041 net166
*1042 net167
*1043 net168
*1044 net169
*1045 net17
*1046 net170
*1047 net171
*1048 net172
*1049 net173
*1050 net174
*1051 net175
*1052 net176
*1053 net177
*1054 net178
*1055 net179
*1056 net18
*1057 net180
*1058 net181
*1059 net182
*1060 net183
*1061 net184
*1062 net185
*1063 net186
*1064 net187
*1065 net188
*1066 net189
*1067 net19
*1068 net190
*1069 net191
*1070 net192
*1071 net193
*1072 net194
*1073 net195
*1074 net196
*1075 net197
*1076 net198
*1077 net199
*1078 net2
*1079 net20
*1080 net200
*1081 net201
*1082 net202
*1083 net203
*1084 net204
*1085 net205
*1086 net206
*1087 net207
*1088 net208
*1089 net209
*1090 net21
*1091 net210
*1092 net211
*1093 net212
*1094 net213
*1095 net214
*1096 net215
*1097 net216
*1098 net217
*1099 net218
*1100 net219
*1101 net22
*1102 net220
*1103 net221
*1104 net222
*1105 net223
*1106 net224
*1107 net225
*1108 net226
*1109 net227
*1110 net228
*1111 net229
*1112 net23
*1113 net230
*1114 net231
*1115 net232
*1116 net233
*1117 net234
*1118 net235
*1119 net236
*1120 net237
*1121 net238
*1122 net239
*1123 net24
*1124 net240
*1125 net241
*1126 net242
*1127 net243
*1128 net244
*1129 net245
*1130 net246
*1131 net247
*1132 net248
*1133 net249
*1134 net25
*1135 net250
*1136 net251
*1137 net252
*1138 net253
*1139 net254
*1140 net255
*1141 net256
*1142 net257
*1143 net258
*1144 net259
*1145 net26
*1146 net260
*1147 net261
*1148 net262
*1149 net263
*1150 net264
*1151 net265
*1152 net266
*1153 net267
*1154 net268
*1155 net269
*1156 net27
*1157 net270
*1158 net271
*1159 net272
*1160 net273
*1161 net274
*1162 net275
*1163 net276
*1164 net277
*1165 net278
*1166 net279
*1167 net28
*1168 net280
*1169 net281
*1170 net282
*1171 net283
*1172 net284
*1173 net285
*1174 net286
*1175 net287
*1176 net288
*1177 net289
*1178 net29
*1179 net290
*1180 net291
*1181 net292
*1182 net293
*1183 net294
*1184 net295
*1185 net296
*1186 net297
*1187 net298
*1188 net299
*1189 net3
*1190 net30
*1191 net300
*1192 net301
*1193 net302
*1194 net303
*1195 net304
*1196 net305
*1197 net306
*1198 net307
*1199 net31
*1200 net32
*1201 net33
*1202 net34
*1203 net35
*1204 net36
*1205 net37
*1206 net38
*1207 net39
*1208 net4
*1209 net40
*1210 net41
*1211 net42
*1212 net43
*1213 net44
*1214 net45
*1215 net46
*1216 net47
*1217 net48
*1218 net49
*1219 net5
*1220 net50
*1221 net51
*1222 net52
*1223 net53
*1224 net54
*1225 net55
*1226 net56
*1227 net57
*1228 net58
*1229 net59
*1230 net6
*1231 net60
*1232 net61
*1233 net62
*1234 net63
*1235 net64
*1236 net65
*1237 net66
*1238 net67
*1239 net68
*1240 net69
*1241 net7
*1242 net70
*1243 net71
*1244 net72
*1245 net73
*1246 net74
*1247 net75
*1248 net76
*1249 net77
*1250 net78
*1251 net79
*1252 net8
*1253 net80
*1254 net81
*1255 net82
*1256 net83
*1257 net84
*1258 net85
*1259 net86
*1260 net87
*1261 net88
*1262 net89
*1263 net9
*1264 net90
*1265 net91
*1266 net92
*1267 net93
*1268 net94
*1269 net95
*1270 net96
*1271 net97
*1272 net98
*1273 net99
*1274 ANTENNA__347__I1
*1275 ANTENNA__347__S
*1276 ANTENNA__348__I
*1277 ANTENNA__350__I0
*1278 ANTENNA__350__I1
*1279 ANTENNA__350__S
*1280 ANTENNA__352__I
*1281 ANTENNA__354__I
*1282 ANTENNA__355__I
*1283 ANTENNA__356__I
*1284 ANTENNA__357__A1
*1285 ANTENNA__357__A2
*1286 ANTENNA__358__A1
*1287 ANTENNA__358__A2
*1288 ANTENNA__359__I
*1289 ANTENNA__360__I
*1290 ANTENNA__361__I
*1291 ANTENNA__362__I
*1292 ANTENNA__363__A2
*1293 ANTENNA__364__I
*1294 ANTENNA__365__I
*1295 ANTENNA__366__A1
*1296 ANTENNA__366__A2
*1297 ANTENNA__367__A2
*1298 ANTENNA__368__A1
*1299 ANTENNA__368__A2
*1300 ANTENNA__369__A1
*1301 ANTENNA__369__A2
*1302 ANTENNA__370__I
*1303 ANTENNA__371__I
*1304 ANTENNA__372__A1
*1305 ANTENNA__372__A2
*1306 ANTENNA__373__A2
*1307 ANTENNA__374__A1
*1308 ANTENNA__374__A2
*1309 ANTENNA__374__A3
*1310 ANTENNA__375__A1
*1311 ANTENNA__375__A2
*1312 ANTENNA__376__A1
*1313 ANTENNA__376__A2
*1314 ANTENNA__377__A1
*1315 ANTENNA__377__A2
*1316 ANTENNA__378__A2
*1317 ANTENNA__379__A2
*1318 ANTENNA__380__A2
*1319 ANTENNA__381__A1
*1320 ANTENNA__381__A2
*1321 ANTENNA__381__B
*1322 ANTENNA__382__A1
*1323 ANTENNA__382__A2
*1324 ANTENNA__382__A3
*1325 ANTENNA__382__A4
*1326 ANTENNA__383__A1
*1327 ANTENNA__383__A2
*1328 ANTENNA__383__A3
*1329 ANTENNA__383__A4
*1330 ANTENNA__384__A1
*1331 ANTENNA__384__A2
*1332 ANTENNA__385__I
*1333 ANTENNA__386__A1
*1334 ANTENNA__386__A2
*1335 ANTENNA__387__A2
*1336 ANTENNA__388__A1
*1337 ANTENNA__388__A2
*1338 ANTENNA__389__A1
*1339 ANTENNA__389__A2
*1340 ANTENNA__389__A3
*1341 ANTENNA__389__A4
*1342 ANTENNA__390__A1
*1343 ANTENNA__390__A2
*1344 ANTENNA__391__I
*1345 ANTENNA__392__A1
*1346 ANTENNA__392__A2
*1347 ANTENNA__393__I
*1348 ANTENNA__394__A1
*1349 ANTENNA__394__A2
*1350 ANTENNA__395__A2
*1351 ANTENNA__396__A1
*1352 ANTENNA__396__A2
*1353 ANTENNA__396__A3
*1354 ANTENNA__396__A4
*1355 ANTENNA__397__A1
*1356 ANTENNA__397__A2
*1357 ANTENNA__398__A2
*1358 ANTENNA__399__A1
*1359 ANTENNA__399__A2
*1360 ANTENNA__400__A2
*1361 ANTENNA__401__A1
*1362 ANTENNA__401__A2
*1363 ANTENNA__401__A3
*1364 ANTENNA__401__A4
*1365 ANTENNA__402__A1
*1366 ANTENNA__402__A2
*1367 ANTENNA__402__B
*1368 ANTENNA__403__A1
*1369 ANTENNA__403__A2
*1370 ANTENNA__404__A2
*1371 ANTENNA__404__B
*1372 ANTENNA__405__A1
*1373 ANTENNA__405__A2
*1374 ANTENNA__405__B
*1375 ANTENNA__406__A2
*1376 ANTENNA__409__I
*1377 ANTENNA__410__I
*1378 ANTENNA__411__I
*1379 ANTENNA__412__A1
*1380 ANTENNA__412__A2
*1381 ANTENNA__413__A1
*1382 ANTENNA__413__A2
*1383 ANTENNA__414__A1
*1384 ANTENNA__414__A2
*1385 ANTENNA__415__I
*1386 ANTENNA__416__I
*1387 ANTENNA__417__I
*1388 ANTENNA__418__A1
*1389 ANTENNA__418__A2
*1390 ANTENNA__418__B1
*1391 ANTENNA__418__B2
*1392 ANTENNA__419__I
*1393 ANTENNA__420__I
*1394 ANTENNA__421__I
*1395 ANTENNA__422__A1
*1396 ANTENNA__422__A2
*1397 ANTENNA__422__A3
*1398 ANTENNA__422__A4
*1399 ANTENNA__423__A1
*1400 ANTENNA__424__I
*1401 ANTENNA__425__A1
*1402 ANTENNA__425__A2
*1403 ANTENNA__426__I
*1404 ANTENNA__427__A1
*1405 ANTENNA__427__A2
*1406 ANTENNA__427__A3
*1407 ANTENNA__427__A4
*1408 ANTENNA__428__A1
*1409 ANTENNA__428__A2
*1410 ANTENNA__428__B1
*1411 ANTENNA__429__A1
*1412 ANTENNA__430__A1
*1413 ANTENNA__430__A2
*1414 ANTENNA__430__A3
*1415 ANTENNA__431__A1
*1416 ANTENNA__431__A2
*1417 ANTENNA__431__B
*1418 ANTENNA__432__A1
*1419 ANTENNA__432__A2
*1420 ANTENNA__433__A1
*1421 ANTENNA__433__A2
*1422 ANTENNA__433__A3
*1423 ANTENNA__433__A4
*1424 ANTENNA__434__A1
*1425 ANTENNA__434__A2
*1426 ANTENNA__434__B2
*1427 ANTENNA__435__A1
*1428 ANTENNA__435__A2
*1429 ANTENNA__436__A1
*1430 ANTENNA__437__A1
*1431 ANTENNA__437__A2
*1432 ANTENNA__437__A3
*1433 ANTENNA__437__A4
*1434 ANTENNA__438__A1
*1435 ANTENNA__438__A2
*1436 ANTENNA__438__B1
*1437 ANTENNA__439__A1
*1438 ANTENNA__440__I
*1439 ANTENNA__441__I
*1440 ANTENNA__442__A1
*1441 ANTENNA__442__A2
*1442 ANTENNA__443__I
*1443 ANTENNA__444__A1
*1444 ANTENNA__444__A2
*1445 ANTENNA__444__A3
*1446 ANTENNA__444__A4
*1447 ANTENNA__445__A1
*1448 ANTENNA__445__A2
*1449 ANTENNA__446__I
*1450 ANTENNA__447__A1
*1451 ANTENNA__447__A2
*1452 ANTENNA__448__A1
*1453 ANTENNA__448__A2
*1454 ANTENNA__448__B1
*1455 ANTENNA__448__C1
*1456 ANTENNA__448__C2
*1457 ANTENNA__449__A1
*1458 ANTENNA__449__A2
*1459 ANTENNA__450__A1
*1460 ANTENNA__450__A2
*1461 ANTENNA__451__A1
*1462 ANTENNA__452__A1
*1463 ANTENNA__452__A2
*1464 ANTENNA__452__B1
*1465 ANTENNA__452__C1
*1466 ANTENNA__452__C2
*1467 ANTENNA__453__A1
*1468 ANTENNA__453__A2
*1469 ANTENNA__454__A1
*1470 ANTENNA__454__A2
*1471 ANTENNA__454__A3
*1472 ANTENNA__455__A1
*1473 ANTENNA__456__A1
*1474 ANTENNA__456__A2
*1475 ANTENNA__456__B1
*1476 ANTENNA__456__C1
*1477 ANTENNA__456__C2
*1478 ANTENNA__457__A1
*1479 ANTENNA__458__I
*1480 ANTENNA__459__A1
*1481 ANTENNA__459__A2
*1482 ANTENNA__460__I
*1483 ANTENNA__461__I
*1484 ANTENNA__462__A1
*1485 ANTENNA__462__A2
*1486 ANTENNA__462__A3
*1487 ANTENNA__462__A4
*1488 ANTENNA__463__A1
*1489 ANTENNA__463__A2
*1490 ANTENNA__464__A1
*1491 ANTENNA__464__A2
*1492 ANTENNA__464__B1
*1493 ANTENNA__464__C1
*1494 ANTENNA__464__C2
*1495 ANTENNA__465__A1
*1496 ANTENNA__465__A2
*1497 ANTENNA__466__I
*1498 ANTENNA__467__A1
*1499 ANTENNA__468__A1
*1500 ANTENNA__468__A2
*1501 ANTENNA__469__A1
*1502 ANTENNA__469__A2
*1503 ANTENNA__470__I
*1504 ANTENNA__471__A1
*1505 ANTENNA__471__A2
*1506 ANTENNA__472__A1
*1507 ANTENNA__473__A1
*1508 ANTENNA__473__A2
*1509 ANTENNA__475__A1
*1510 ANTENNA__475__A2
*1511 ANTENNA__475__B1
*1512 ANTENNA__475__B2
*1513 ANTENNA__475__C1
*1514 ANTENNA__475__C2
*1515 ANTENNA__476__A2
*1516 ANTENNA__477__A1
*1517 ANTENNA__477__B
*1518 ANTENNA__478__A1
*1519 ANTENNA__478__A2
*1520 ANTENNA__479__A1
*1521 ANTENNA__479__A2
*1522 ANTENNA__479__A3
*1523 ANTENNA__481__A1
*1524 ANTENNA__482__A1
*1525 ANTENNA__482__A2
*1526 ANTENNA__482__B1
*1527 ANTENNA__482__B2
*1528 ANTENNA__483__I
*1529 ANTENNA__484__B
*1530 ANTENNA__485__A1
*1531 ANTENNA__486__A1
*1532 ANTENNA__486__A2
*1533 ANTENNA__486__B1
*1534 ANTENNA__486__C1
*1535 ANTENNA__486__C2
*1536 ANTENNA__488__I
*1537 ANTENNA__489__A1
*1538 ANTENNA__489__A2
*1539 ANTENNA__489__A3
*1540 ANTENNA__489__A4
*1541 ANTENNA__490__A1
*1542 ANTENNA__490__A2
*1543 ANTENNA__492__A1
*1544 ANTENNA__492__A2
*1545 ANTENNA__492__B1
*1546 ANTENNA__492__C1
*1547 ANTENNA__492__C2
*1548 ANTENNA__493__A2
*1549 ANTENNA__494__A1
*1550 ANTENNA__494__A2
*1551 ANTENNA__495__A1
*1552 ANTENNA__496__A1
*1553 ANTENNA__496__A2
*1554 ANTENNA__496__B1
*1555 ANTENNA__496__C1
*1556 ANTENNA__496__C2
*1557 ANTENNA__497__A2
*1558 ANTENNA__498__I
*1559 ANTENNA__499__A1
*1560 ANTENNA__500__A1
*1561 ANTENNA__501__A1
*1562 ANTENNA__501__A2
*1563 ANTENNA__501__B1
*1564 ANTENNA__501__C1
*1565 ANTENNA__501__C2
*1566 ANTENNA__502__A1
*1567 ANTENNA__503__I
*1568 ANTENNA__504__A1
*1569 ANTENNA__504__A2
*1570 ANTENNA__504__A3
*1571 ANTENNA__504__A4
*1572 ANTENNA__505__A1
*1573 ANTENNA__505__A2
*1574 ANTENNA__506__A1
*1575 ANTENNA__506__A2
*1576 ANTENNA__506__B1
*1577 ANTENNA__506__B2
*1578 ANTENNA__508__A3
*1579 ANTENNA__509__A1
*1580 ANTENNA__509__A2
*1581 ANTENNA__509__B1
*1582 ANTENNA__509__B2
*1583 ANTENNA__509__C
*1584 ANTENNA__510__A1
*1585 ANTENNA__511__I
*1586 ANTENNA__512__A1
*1587 ANTENNA__512__A2
*1588 ANTENNA__513__A1
*1589 ANTENNA__513__A2
*1590 ANTENNA__513__B1
*1591 ANTENNA__513__C1
*1592 ANTENNA__513__C2
*1593 ANTENNA__514__A1
*1594 ANTENNA__514__A2
*1595 ANTENNA__515__A1
*1596 ANTENNA__515__A2
*1597 ANTENNA__516__A2
*1598 ANTENNA__517__A1
*1599 ANTENNA__517__A2
*1600 ANTENNA__518__A1
*1601 ANTENNA__519__I
*1602 ANTENNA__520__A1
*1603 ANTENNA__520__A2
*1604 ANTENNA__521__A1
*1605 ANTENNA__521__A2
*1606 ANTENNA__522__A1
*1607 ANTENNA__522__A2
*1608 ANTENNA__523__I
*1609 ANTENNA__524__A1
*1610 ANTENNA__524__A2
*1611 ANTENNA__524__B1
*1612 ANTENNA__524__C1
*1613 ANTENNA__524__C2
*1614 ANTENNA__525__A1
*1615 ANTENNA__525__A2
*1616 ANTENNA__527__I
*1617 ANTENNA__528__A2
*1618 ANTENNA__528__B
*1619 ANTENNA__529__A1
*1620 ANTENNA__529__A2
*1621 ANTENNA__530__A1
*1622 ANTENNA__530__A2
*1623 ANTENNA__530__A3
*1624 ANTENNA__531__I
*1625 ANTENNA__533__A1
*1626 ANTENNA__533__A2
*1627 ANTENNA__533__B1
*1628 ANTENNA__533__B2
*1629 ANTENNA__534__A1
*1630 ANTENNA__535__I
*1631 ANTENNA__536__A1
*1632 ANTENNA__537__I
*1633 ANTENNA__538__A1
*1634 ANTENNA__538__A2
*1635 ANTENNA__538__B1
*1636 ANTENNA__538__C1
*1637 ANTENNA__538__C2
*1638 ANTENNA__539__A1
*1639 ANTENNA__540__A1
*1640 ANTENNA__540__A2
*1641 ANTENNA__541__A1
*1642 ANTENNA__541__B
*1643 ANTENNA__543__A1
*1644 ANTENNA__543__A2
*1645 ANTENNA__543__B1
*1646 ANTENNA__543__B2
*1647 ANTENNA__544__A1
*1648 ANTENNA__545__A1
*1649 ANTENNA__546__A1
*1650 ANTENNA__546__A2
*1651 ANTENNA__546__B1
*1652 ANTENNA__546__C1
*1653 ANTENNA__546__C2
*1654 ANTENNA__547__A1
*1655 ANTENNA__549__A1
*1656 ANTENNA__549__A2
*1657 ANTENNA__550__A1
*1658 ANTENNA__550__A3
*1659 ANTENNA__551__A1
*1660 ANTENNA__551__B
*1661 ANTENNA__551__C
*1662 ANTENNA__552__A1
*1663 ANTENNA__552__A2
*1664 ANTENNA__552__B1
*1665 ANTENNA__552__B2
*1666 ANTENNA__553__B
*1667 ANTENNA__555__I
*1668 ANTENNA__556__A1
*1669 ANTENNA__556__A2
*1670 ANTENNA__557__A1
*1671 ANTENNA__557__A2
*1672 ANTENNA__557__B1
*1673 ANTENNA__557__C1
*1674 ANTENNA__557__C2
*1675 ANTENNA__558__A1
*1676 ANTENNA__559__A1
*1677 ANTENNA__559__A2
*1678 ANTENNA__560__A1
*1679 ANTENNA__560__A2
*1680 ANTENNA__561__A1
*1681 ANTENNA__561__A2
*1682 ANTENNA__562__A1
*1683 ANTENNA__562__B1
*1684 ANTENNA__562__C1
*1685 ANTENNA__562__C2
*1686 ANTENNA__563__A1
*1687 ANTENNA__564__A1
*1688 ANTENNA__565__A1
*1689 ANTENNA__565__A2
*1690 ANTENNA__566__A1
*1691 ANTENNA__567__I
*1692 ANTENNA__568__A1
*1693 ANTENNA__568__A2
*1694 ANTENNA__569__A1
*1695 ANTENNA__570__A1
*1696 ANTENNA__570__A2
*1697 ANTENNA__571__I
*1698 ANTENNA__572__A2
*1699 ANTENNA__572__B1
*1700 ANTENNA__572__C1
*1701 ANTENNA__572__C2
*1702 ANTENNA__573__A1
*1703 ANTENNA__574__A1
*1704 ANTENNA__574__A2
*1705 ANTENNA__575__I
*1706 ANTENNA__576__I
*1707 ANTENNA__577__A2
*1708 ANTENNA__577__A3
*1709 ANTENNA__578__I
*1710 ANTENNA__579__I
*1711 ANTENNA__580__A2
*1712 ANTENNA__581__A1
*1713 ANTENNA__581__A2
*1714 ANTENNA__581__A3
*1715 ANTENNA__582__I
*1716 ANTENNA__583__A1
*1717 ANTENNA__583__B
*1718 ANTENNA__583__C
*1719 ANTENNA__584__A2
*1720 ANTENNA__584__B1
*1721 ANTENNA__584__B2
*1722 ANTENNA__585__A1
*1723 ANTENNA__585__A2
*1724 ANTENNA__587__I
*1725 ANTENNA__588__A1
*1726 ANTENNA__588__A2
*1727 ANTENNA__589__A2
*1728 ANTENNA__589__B1
*1729 ANTENNA__589__C1
*1730 ANTENNA__589__C2
*1731 ANTENNA__590__A1
*1732 ANTENNA__591__I
*1733 ANTENNA__592__A1
*1734 ANTENNA__592__A2
*1735 ANTENNA__592__A3
*1736 ANTENNA__593__A1
*1737 ANTENNA__593__A2
*1738 ANTENNA__593__B
*1739 ANTENNA__594__A1
*1740 ANTENNA__596__A1
*1741 ANTENNA__596__A2
*1742 ANTENNA__596__A3
*1743 ANTENNA__597__A1
*1744 ANTENNA__597__A2
*1745 ANTENNA__597__B1
*1746 ANTENNA__597__B2
*1747 ANTENNA__597__C
*1748 ANTENNA__598__A1
*1749 ANTENNA__598__A2
*1750 ANTENNA__599__A1
*1751 ANTENNA__599__A2
*1752 ANTENNA__600__A1
*1753 ANTENNA__600__A2
*1754 ANTENNA__601__B1
*1755 ANTENNA__601__C1
*1756 ANTENNA__601__C2
*1757 ANTENNA__602__A1
*1758 ANTENNA__603__A1
*1759 ANTENNA__603__A2
*1760 ANTENNA__603__A3
*1761 ANTENNA__603__A4
*1762 ANTENNA__605__A1
*1763 ANTENNA__605__A2
*1764 ANTENNA__605__B1
*1765 ANTENNA__605__C1
*1766 ANTENNA__605__C2
*1767 ANTENNA__606__A1
*1768 ANTENNA__607__A2
*1769 ANTENNA__609__A1
*1770 ANTENNA__609__A2
*1771 ANTENNA__609__A3
*1772 ANTENNA__609__A4
*1773 ANTENNA__610__I
*1774 ANTENNA__611__A1
*1775 ANTENNA__611__A2
*1776 ANTENNA__611__B