*SPEF "ieee 1481-1999"
*DESIGN "spi_device"
*DATE "11:11:11 Fri 11 11, 1111"
*VENDOR "OpenRCX"
*PROGRAM "Parallel Extraction"
*VERSION "1.0"
*DESIGN_FLOW "NAME_SCOPE LOCAL" "PIN_CAP NONE"
*DIVIDER /
*DELIMITER :
*BUS_DELIMITER []
*T_UNIT 1 NS
*C_UNIT 1 PF
*R_UNIT 1 OHM
*L_UNIT 1 HENRY

*NAME_MAP
*1 reg_addr[0]
*2 reg_addr[1]
*3 reg_addr[2]
*4 reg_bus
*5 reg_clk
*6 reg_dir
*7 spi_clk
*8 spi_miso
*9 spi_mosi
*10 spi_sel
*13 _00_
*14 _01_
*15 _02_
*16 _03_
*17 _04_
*18 _05_
*19 _06_
*20 _07_
*21 _08_
*22 _09_
*23 _10_
*24 _11_
*25 _12_
*26 _13_
*27 _14_
*28 _15_
*29 _16_
*30 _17_
*31 _18_
*32 _19_
*33 _20_
*34 _21_
*35 _22_
*36 _23_
*37 _24_
*38 _25_
*39 _26_
*40 _27_
*41 _28_
*42 _29_
*43 _30_
*44 _31_
*45 clknet_0_spi_clk
*46 clknet_1_0__leaf_spi_clk
*47 clknet_1_1__leaf_spi_clk
*48 net1
*49 net2
*50 net3
*51 net4
*52 net5
*53 net6
*54 net7
*55 net8
*56 next_state\[0\]
*57 next_state\[1\]
*58 pres_state\[0\]
*59 pres_state\[1\]
*60 t\[0\]
*61 t\[1\]
*62 t\[2\]
*63 ANTENNA_clkbuf_0_spi_clk_A
*64 ANTENNA_input1_A
*65 ANTENNA_input2_A
*66 FILLER_0_109
*67 FILLER_0_113
*68 FILLER_0_125
*69 FILLER_0_137
*70 FILLER_0_141
*71 FILLER_0_153
*72 FILLER_0_165
*73 FILLER_0_21
*74 FILLER_0_27
*75 FILLER_0_29
*76 FILLER_0_3
*77 FILLER_0_41
*78 FILLER_0_53
*79 FILLER_0_57
*80 FILLER_0_69
*81 FILLER_0_81
*82 FILLER_0_85
*83 FILLER_0_9
*84 FILLER_0_97
*85 FILLER_10_109
*86 FILLER_10_121
*87 FILLER_10_133
*88 FILLER_10_139
*89 FILLER_10_141
*90 FILLER_10_15
*91 FILLER_10_153
*92 FILLER_10_165
*93 FILLER_10_27
*94 FILLER_10_29
*95 FILLER_10_3
*96 FILLER_10_41
*97 FILLER_10_53
*98 FILLER_10_65
*99 FILLER_10_77
*100 FILLER_10_83
*101 FILLER_10_85
*102 FILLER_10_97
*103 FILLER_11_105
*104 FILLER_11_111
*105 FILLER_11_113
*106 FILLER_11_125
*107 FILLER_11_137
*108 FILLER_11_149
*109 FILLER_11_15
*110 FILLER_11_161
*111 FILLER_11_167
*112 FILLER_11_27
*113 FILLER_11_3
*114 FILLER_11_39
*115 FILLER_11_51
*116 FILLER_11_55
*117 FILLER_11_57
*118 FILLER_11_69
*119 FILLER_11_81
*120 FILLER_11_93
*121 FILLER_12_109
*122 FILLER_12_11
*123 FILLER_12_121
*124 FILLER_12_133
*125 FILLER_12_139
*126 FILLER_12_141
*127 FILLER_12_153
*128 FILLER_12_165
*129 FILLER_12_23
*130 FILLER_12_27
*131 FILLER_12_29
*132 FILLER_12_3
*133 FILLER_12_41
*134 FILLER_12_53
*135 FILLER_12_65
*136 FILLER_12_7
*137 FILLER_12_77
*138 FILLER_12_83
*139 FILLER_12_85
*140 FILLER_12_97
*141 FILLER_13_105
*142 FILLER_13_11
*143 FILLER_13_111
*144 FILLER_13_113
*145 FILLER_13_125
*146 FILLER_13_137
*147 FILLER_13_149
*148 FILLER_13_15
*149 FILLER_13_161
*150 FILLER_13_167
*151 FILLER_13_23
*152 FILLER_13_3
*153 FILLER_13_33
*154 FILLER_13_45
*155 FILLER_13_53
*156 FILLER_13_57
*157 FILLER_13_69
*158 FILLER_13_81
*159 FILLER_13_93
*160 FILLER_14_109
*161 FILLER_14_121
*162 FILLER_14_133
*163 FILLER_14_139
*164 FILLER_14_141
*165 FILLER_14_153
*166 FILLER_14_165
*167 FILLER_14_21
*168 FILLER_14_27
*169 FILLER_14_29
*170 FILLER_14_3
*171 FILLER_14_38
*172 FILLER_14_50
*173 FILLER_14_62
*174 FILLER_14_72
*175 FILLER_14_85
*176 FILLER_14_9
*177 FILLER_14_97
*178 FILLER_15_101
*179 FILLER_15_109
*180 FILLER_15_113
*181 FILLER_15_125
*182 FILLER_15_137
*183 FILLER_15_14
*184 FILLER_15_149
*185 FILLER_15_161
*186 FILLER_15_167
*187 FILLER_15_20
*188 FILLER_15_3
*189 FILLER_15_34
*190 FILLER_15_49
*191 FILLER_15_55
*192 FILLER_15_57
*193 FILLER_15_65
*194 FILLER_15_77
*195 FILLER_15_89
*196 FILLER_16_109
*197 FILLER_16_121
*198 FILLER_16_133
*199 FILLER_16_139
*200 FILLER_16_141
*201 FILLER_16_15
*202 FILLER_16_153
*203 FILLER_16_165
*204 FILLER_16_19
*205 FILLER_16_26
*206 FILLER_16_29
*207 FILLER_16_3
*208 FILLER_16_44
*209 FILLER_16_54
*210 FILLER_16_66
*211 FILLER_16_78
*212 FILLER_16_85
*213 FILLER_16_9
*214 FILLER_16_97
*215 FILLER_17_105
*216 FILLER_17_111
*217 FILLER_17_113
*218 FILLER_17_125
*219 FILLER_17_137
*220 FILLER_17_149
*221 FILLER_17_161
*222 FILLER_17_167
*223 FILLER_17_17
*224 FILLER_17_3
*225 FILLER_17_33
*226 FILLER_17_41
*227 FILLER_17_51
*228 FILLER_17_55
*229 FILLER_17_57
*230 FILLER_17_63
*231 FILLER_17_75
*232 FILLER_17_93
*233 FILLER_18_109
*234 FILLER_18_121
*235 FILLER_18_133
*236 FILLER_18_139
*237 FILLER_18_141
*238 FILLER_18_153
*239 FILLER_18_165
*240 FILLER_18_25
*241 FILLER_18_29
*242 FILLER_18_3
*243 FILLER_18_34
*244 FILLER_18_41
*245 FILLER_18_53
*246 FILLER_18_62
*247 FILLER_18_74
*248 FILLER_18_81
*249 FILLER_18_85
*250 FILLER_18_97
*251 FILLER_19_102
*252 FILLER_19_110
*253 FILLER_19_113
*254 FILLER_19_12
*255 FILLER_19_125
*256 FILLER_19_137
*257 FILLER_19_149
*258 FILLER_19_161
*259 FILLER_19_167
*260 FILLER_19_3
*261 FILLER_19_36
*262 FILLER_19_49
*263 FILLER_19_55
*264 FILLER_19_57
*265 FILLER_19_66
*266 FILLER_19_78
*267 FILLER_19_90
*268 FILLER_1_105
*269 FILLER_1_111
*270 FILLER_1_113
*271 FILLER_1_125
*272 FILLER_1_137
*273 FILLER_1_149
*274 FILLER_1_15
*275 FILLER_1_161
*276 FILLER_1_167
*277 FILLER_1_27
*278 FILLER_1_3
*279 FILLER_1_39
*280 FILLER_1_51
*281 FILLER_1_55
*282 FILLER_1_57
*283 FILLER_1_69
*284 FILLER_1_81
*285 FILLER_1_93
*286 FILLER_20_109
*287 FILLER_20_121
*288 FILLER_20_133
*289 FILLER_20_139
*290 FILLER_20_141
*291 FILLER_20_153
*292 FILLER_20_165
*293 FILLER_20_25
*294 FILLER_20_29
*295 FILLER_20_3
*296 FILLER_20_51
*297 FILLER_20_58
*298 FILLER_20_62
*299 FILLER_20_70
*300 FILLER_20_82
*301 FILLER_20_85
*302 FILLER_20_97
*303 FILLER_21_104
*304 FILLER_21_113
*305 FILLER_21_125
*306 FILLER_21_13
*307 FILLER_21_137
*308 FILLER_21_149
*309 FILLER_21_161
*310 FILLER_21_167
*311 FILLER_21_21
*312 FILLER_21_3
*313 FILLER_21_43
*314 FILLER_21_47
*315 FILLER_21_54
*316 FILLER_21_57
*317 FILLER_21_61
*318 FILLER_21_68
*319 FILLER_21_80
*320 FILLER_21_92
*321 FILLER_22_109
*322 FILLER_22_121
*323 FILLER_22_133
*324 FILLER_22_139
*325 FILLER_22_141
*326 FILLER_22_153
*327 FILLER_22_165
*328 FILLER_22_26
*329 FILLER_22_29
*330 FILLER_22_3
*331 FILLER_22_52
*332 FILLER_22_68
*333 FILLER_22_78
*334 FILLER_22_85
*335 FILLER_22_97
*336 FILLER_23_102
*337 FILLER_23_110
*338 FILLER_23_113
*339 FILLER_23_125
*340 FILLER_23_137
*341 FILLER_23_149
*342 FILLER_23_161
*343 FILLER_23_167
*344 FILLER_23_17
*345 FILLER_23_3
*346 FILLER_23_44
*347 FILLER_23_54
*348 FILLER_23_57
*349 FILLER_23_61
*350 FILLER_23_65
*351 FILLER_23_78
*352 FILLER_23_90
*353 FILLER_24_10
*354 FILLER_24_101
*355 FILLER_24_106
*356 FILLER_24_113
*357 FILLER_24_125
*358 FILLER_24_137
*359 FILLER_24_141
*360 FILLER_24_153
*361 FILLER_24_161
*362 FILLER_24_166
*363 FILLER_24_17
*364 FILLER_24_24
*365 FILLER_24_29
*366 FILLER_24_3
*367 FILLER_24_33
*368 FILLER_24_38
*369 FILLER_24_54
*370 FILLER_24_57
*371 FILLER_24_62
*372 FILLER_24_74
*373 FILLER_24_82
*374 FILLER_24_85
*375 FILLER_24_97
*376 FILLER_2_109
*377 FILLER_2_121
*378 FILLER_2_133
*379 FILLER_2_139
*380 FILLER_2_141
*381 FILLER_2_15
*382 FILLER_2_153
*383 FILLER_2_165
*384 FILLER_2_27
*385 FILLER_2_29
*386 FILLER_2_3
*387 FILLER_2_41
*388 FILLER_2_53
*389 FILLER_2_65
*390 FILLER_2_77
*391 FILLER_2_83
*392 FILLER_2_85
*393 FILLER_2_97
*394 FILLER_3_105
*395 FILLER_3_111
*396 FILLER_3_113
*397 FILLER_3_125
*398 FILLER_3_137
*399 FILLER_3_149
*400 FILLER_3_15
*401 FILLER_3_161
*402 FILLER_3_167
*403 FILLER_3_27
*404 FILLER_3_3
*405 FILLER_3_39
*406 FILLER_3_51
*407 FILLER_3_55
*408 FILLER_3_57
*409 FILLER_3_69
*410 FILLER_3_81
*411 FILLER_3_93
*412 FILLER_4_109
*413 FILLER_4_121
*414 FILLER_4_133
*415 FILLER_4_139
*416 FILLER_4_141
*417 FILLER_4_15
*418 FILLER_4_153
*419 FILLER_4_165
*420 FILLER_4_27
*421 FILLER_4_29
*422 FILLER_4_3
*423 FILLER_4_41
*424 FILLER_4_53
*425 FILLER_4_65
*426 FILLER_4_77
*427 FILLER_4_83
*428 FILLER_4_85
*429 FILLER_4_97
*430 FILLER_5_105
*431 FILLER_5_111
*432 FILLER_5_113
*433 FILLER_5_125
*434 FILLER_5_137
*435 FILLER_5_149
*436 FILLER_5_15
*437 FILLER_5_161
*438 FILLER_5_167
*439 FILLER_5_27
*440 FILLER_5_3
*441 FILLER_5_39
*442 FILLER_5_51
*443 FILLER_5_55
*444 FILLER_5_57
*445 FILLER_5_69
*446 FILLER_5_81
*447 FILLER_5_93
*448 FILLER_6_109
*449 FILLER_6_121
*450 FILLER_6_133
*451 FILLER_6_139
*452 FILLER_6_141
*453 FILLER_6_15
*454 FILLER_6_153
*455 FILLER_6_165
*456 FILLER_6_27
*457 FILLER_6_29
*458 FILLER_6_3
*459 FILLER_6_41
*460 FILLER_6_53
*461 FILLER_6_65
*462 FILLER_6_77
*463 FILLER_6_83
*464 FILLER_6_85
*465 FILLER_6_97
*466 FILLER_7_105
*467 FILLER_7_111
*468 FILLER_7_113
*469 FILLER_7_125
*470 FILLER_7_137
*471 FILLER_7_149
*472 FILLER_7_15
*473 FILLER_7_161
*474 FILLER_7_167
*475 FILLER_7_27
*476 FILLER_7_3
*477 FILLER_7_39
*478 FILLER_7_51
*479 FILLER_7_55
*480 FILLER_7_57
*481 FILLER_7_69
*482 FILLER_7_81
*483 FILLER_7_93
*484 FILLER_8_109
*485 FILLER_8_121
*486 FILLER_8_133
*487 FILLER_8_139
*488 FILLER_8_14
*489 FILLER_8_141
*490 FILLER_8_153
*491 FILLER_8_165
*492 FILLER_8_26
*493 FILLER_8_29
*494 FILLER_8_3
*495 FILLER_8_41
*496 FILLER_8_53
*497 FILLER_8_65
*498 FILLER_8_77
*499 FILLER_8_8
*500 FILLER_8_83
*501 FILLER_8_85
*502 FILLER_8_97
*503 FILLER_9_105
*504 FILLER_9_111
*505 FILLER_9_113
*506 FILLER_9_125
*507 FILLER_9_137
*508 FILLER_9_149
*509 FILLER_9_15
*510 FILLER_9_161
*511 FILLER_9_167
*512 FILLER_9_27
*513 FILLER_9_3
*514 FILLER_9_39
*515 FILLER_9_51
*516 FILLER_9_55
*517 FILLER_9_57
*518 FILLER_9_69
*519 FILLER_9_81
*520 FILLER_9_93
*521 PHY_0
*522 PHY_1
*523 PHY_10
*524 PHY_11
*525 PHY_12
*526 PHY_13
*527 PHY_14
*528 PHY_15
*529 PHY_16
*530 PHY_17
*531 PHY_18
*532 PHY_19
*533 PHY_2
*534 PHY_20
*535 PHY_21
*536 PHY_22
*537 PHY_23
*538 PHY_24
*539 PHY_25
*540 PHY_26
*541 PHY_27
*542 PHY_28
*543 PHY_29
*544 PHY_3
*545 PHY_30
*546 PHY_31
*547 PHY_32
*548 PHY_33
*549 PHY_34
*550 PHY_35
*551 PHY_36
*552 PHY_37
*553 PHY_38
*554 PHY_39
*555 PHY_4
*556 PHY_40
*557 PHY_41
*558 PHY_42
*559 PHY_43
*560 PHY_44
*561 PHY_45
*562 PHY_46
*563 PHY_47
*564 PHY_48
*565 PHY_49
*566 PHY_5
*567 PHY_6
*568 PHY_7
*569 PHY_8
*570 PHY_9
*571 TAP_100
*572 TAP_101
*573 TAP_102
*574 TAP_103
*575 TAP_104
*576 TAP_105
*577 TAP_106
*578 TAP_107
*579 TAP_108
*580 TAP_109
*581 TAP_110
*582 TAP_111
*583 TAP_112
*584 TAP_113
*585 TAP_114
*586 TAP_115
*587 TAP_116
*588 TAP_50
*589 TAP_51
*590 TAP_52
*591 TAP_53
*592 TAP_54
*593 TAP_55
*594 TAP_56
*595 TAP_57
*596 TAP_58
*597 TAP_59
*598 TAP_60
*599 TAP_61
*600 TAP_62
*601 TAP_63
*602 TAP_64
*603 TAP_65
*604 TAP_66
*605 TAP_67
*606 TAP_68
*607 TAP_69
*608 TAP_70
*609 TAP_71
*610 TAP_72
*611 TAP_73
*612 TAP_74
*613 TAP_75
*614 TAP_76
*615 TAP_77
*616 TAP_78
*617 TAP_79
*618 TAP_80
*619 TAP_81
*620 TAP_82
*621 TAP_83
*622 TAP_84
*623 TAP_85
*624 TAP_86
*625 TAP_87
*626 TAP_88
*627 TAP_89
*628 TAP_90
*629 TAP_91
*630 TAP_92
*631 TAP_93
*632 TAP_94
*633 TAP_95
*634 TAP_96
*635 TAP_97
*636 TAP_98
*637 TAP_99
*638 _32_
*639 _33_
*640 _34_
*641 _35_
*642 _36_
*643 _37_
*644 _38_
*645 _39_
*646 _40_
*647 _41_
*648 _42_
*649 _43_
*650 _44_
*651 _45_
*652 _46_
*653 _47_
*654 _48_
*655 _49_
*656 _50_
*657 _51_
*658 _52_
*659 _53_
*660 _54_
*661 _55_
*662 _56_
*663 _57_
*664 _58_
*665 _59_
*666 _60_
*667 _61_
*668 _62_
*669 _63_
*670 _64_
*671 _65_
*672 _66_
*673 _67_
*674 _68_
*675 _69_
*676 _70_
*677 _71_
*678 _72_
*679 _73_
*680 _74_
*681 _75_
*682 _76_
*683 _77_
*684 clkbuf_0_spi_clk
*685 clkbuf_1_0__f_spi_clk
*686 clkbuf_1_1__f_spi_clk
*687 input1
*688 input2
*689 output3
*690 output4
*691 output5
*692 output6
*693 output7
*694 output8

*PORTS
reg_addr[0] O
reg_addr[1] O
reg_addr[2] O
reg_bus I
reg_clk O
reg_dir O
spi_clk I
spi_miso O
spi_mosi I
spi_sel I

*D_NET *1 0.00101023
*CONN
*P reg_addr[0] O
*I *689:X O *D sky130_fd_sc_hd__buf_2
*CAP
1 reg_addr[0] 0.000476594
2 *689:X 0.000476594
3 reg_addr[0] *53:13 5.70419e-05
*RES
1 *689:X reg_addr[0] 47.7979 
*END

*D_NET *2 0.00107829
*CONN
*P reg_addr[1] O
*I *690:X O *D sky130_fd_sc_hd__buf_2
*CAP
1 reg_addr[1] 0.000519787
2 *690:X 0.000519787
3 reg_addr[1] *53:15 3.87132e-05
*RES
1 *690:X reg_addr[1] 48.2743 
*END

*D_NET *3 0.000942052
*CONN
*P reg_addr[2] O
*I *691:X O *D sky130_fd_sc_hd__buf_2
*CAP
1 reg_addr[2] 0.000471026
2 *691:X 0.000471026
*RES
1 *691:X reg_addr[2] 48.2743 
*END

*D_NET *4 0.0127579
*CONN
*P reg_bus I
*I *679:D I *D sky130_fd_sc_hd__dlxtn_1
*I *680:Q O *D sky130_fd_sc_hd__dlxtn_2
*CAP
1 reg_bus 0.00156723
2 *679:D 0
3 *680:Q 0
4 *4:17 0.0051854
5 *4:11 0.000729923
6 *4:4 0.00434809
7 *4:11 *20:7 9.58714e-05
8 *4:11 *44:8 0.000167443
9 *4:11 *57:10 0.000167443
10 *4:17 *658:B1 0.000175716
11 *4:17 *680:D 9.87414e-05
12 *4:17 *680:GATE_N 8.17462e-05
13 *4:17 *16:7 0.000140259
*RES
1 *680:Q *4:4 23 
2 *4:4 *4:11 41.5482 
3 *4:11 *679:D 23 
4 *4:4 *4:17 48.3161 
5 *4:17 reg_bus 46.2371 
*END

*D_NET *5 0.000857009
*CONN
*P reg_clk O
*I *692:X O *D sky130_fd_sc_hd__buf_2
*CAP
1 reg_clk 0.000428504
2 *692:X 0.000428504
*RES
1 *692:X reg_clk 47.3214 
*END

*D_NET *6 0.00100476
*CONN
*P reg_dir O
*I *693:X O *D sky130_fd_sc_hd__buf_2
*CAP
1 reg_dir 0.000502381
2 *693:X 0.000502381
*RES
1 *693:X reg_dir 47.7979 
*END

*D_NET *7 0.00612934
*CONN
*P spi_clk I
*I *63:DIODE I *D sky130_fd_sc_hd__diode_2
*I *684:A I *D sky130_fd_sc_hd__clkbuf_16
*CAP
1 spi_clk 0.000956186
2 *63:DIODE 0
3 *684:A 0.000308347
4 *7:24 0.00121314
5 *7:8 0.00247768
6 *684:A *46:28 0.000171906
7 *7:8 *46:28 5.33597e-05
8 *7:8 *49:36 0
9 *7:8 *53:8 0
10 *7:24 *678:RESET_B 0.000123546
11 *7:24 *13:11 6.30204e-05
12 *7:24 *20:13 6.12228e-05
13 *7:24 *24:5 0.00026808
14 *7:24 *46:28 7.61927e-05
15 *7:24 *59:7 0.000356661
*RES
1 spi_clk *7:8 14.9448 
2 *7:8 *684:A 43.7379 
3 *7:8 *7:24 35.3207 
4 *7:24 *63:DIODE 23 
*END

*D_NET *8 0.000704933
*CONN
*P spi_miso O
*I *694:X O *D sky130_fd_sc_hd__buf_2
*CAP
1 spi_miso 0.000352467
2 *694:X 0.000352467
*RES
1 *694:X spi_miso 47.4224 
*END

*D_NET *9 0.00111454
*CONN
*P spi_mosi I
*I *64:DIODE I *D sky130_fd_sc_hd__diode_2
*I *687:A I *D sky130_fd_sc_hd__clkbuf_1
*CAP
1 spi_mosi 0.000299426
2 *64:DIODE 0.00013199
3 *687:A 0
4 *9:11 0.000431416
5 *64:DIODE *48:7 0.000230604
6 *9:11 *55:6 2.11066e-05
*RES
1 spi_mosi *9:11 24.7862 
2 *9:11 *687:A 23 
3 *9:11 *64:DIODE 26.48 
*END

*D_NET *10 0.00182833
*CONN
*P spi_sel I
*I *688:A I *D sky130_fd_sc_hd__clkbuf_2
*I *65:DIODE I *D sky130_fd_sc_hd__diode_2
*CAP
1 spi_sel 0.000318215
2 *688:A 0
3 *65:DIODE 0
4 *10:18 0.000481076
5 *10:10 0.000799292
6 *10:10 *49:6 2.43903e-05
7 *10:10 *55:6 5.04995e-05
8 *10:18 *655:A 9.67842e-05
9 *10:18 *18:10 5.56203e-05
10 *10:18 *57:7 2.45549e-06
*RES
1 spi_sel *10:10 24.6887 
2 *10:10 *10:18 37.9129 
3 *10:18 *65:DIODE 23 
4 *10:10 *688:A 23 
*END

*D_NET *13 0.00459998
*CONN
*I *681:D I *D sky130_fd_sc_hd__dlxtn_1
*I *662:X O *D sky130_fd_sc_hd__buf_1
*CAP
1 *681:D 0
2 *662:X 6.55145e-05
3 *13:11 0.00149076
4 *13:6 0.00155627
5 *13:6 *22:6 0
6 *13:6 *42:14 4.08641e-05
7 *13:11 *673:D 6.17437e-06
8 *13:11 *678:RESET_B 0.000831473
9 *13:11 *20:13 0.0005021
10 *13:11 *24:5 4.38084e-05
11 *7:24 *13:11 6.30204e-05
*RES
1 *662:X *13:6 39.2014 
2 *13:6 *13:11 37.91 
3 *13:11 *681:D 23 
*END

*D_NET *14 0.00784433
*CONN
*I *682:D I *D sky130_fd_sc_hd__dlxtn_1
*I *683:D I *D sky130_fd_sc_hd__dlxtn_1
*I *673:D I *D sky130_fd_sc_hd__dlxtn_1
*I *672:D I *D sky130_fd_sc_hd__dlxtn_1
*I *664:X O *D sky130_fd_sc_hd__clkbuf_1
*CAP
1 *682:D 0.000857136
2 *683:D 0
3 *673:D 0.000215775
4 *672:D 0
5 *664:X 0.000279508
6 *14:42 0.000547173
7 *14:25 0.000890324
8 *14:18 0.000355988
9 *14:15 0.000672571
10 *14:9 0.00150954
11 *14:6 0.00048795
12 *673:D *24:5 0.000317087
13 *682:D *638:A 5.29672e-05
14 *682:D *30:5 2.31797e-05
15 *14:6 *645:A_N 0
16 *14:6 *660:A1_N 3.70187e-05
17 *14:6 *16:11 6.0039e-05
18 *14:6 *19:8 0.000141879
19 *14:6 *30:82 0
20 *14:9 *638:A 6.87362e-05
21 *14:9 *37:19 5.41385e-05
22 *14:9 *37:30 4.9662e-05
23 *14:15 *16:11 0
24 *14:15 *34:8 0.000169665
25 *14:15 *49:54 0.000166513
26 *14:15 *59:45 0
27 *14:15 *59:47 0
28 *14:15 *61:14 0
29 *14:15 *62:24 0.000140259
30 *14:18 *16:11 0
31 *14:18 *29:6 9.96459e-05
32 *14:18 *42:14 2.49836e-05
33 *14:18 *61:8 9.88303e-05
34 *14:18 *61:10 0.000257542
35 *14:18 *61:14 1.01436e-05
36 *14:25 *29:6 7.20635e-05
37 *14:25 *42:14 0.000116812
38 *14:42 *640:A1 0
39 *14:42 *22:6 4.9981e-05
40 *14:42 *29:6 2.82419e-06
41 *14:42 *42:14 8.22421e-06
42 *13:11 *673:D 6.17437e-06
*RES
1 *664:X *14:6 43.4271 
2 *14:6 *14:9 18.9564 
3 *14:9 *14:15 39.4664 
4 *14:15 *14:18 20.7793 
5 *14:18 *672:D 38 
6 *14:18 *14:25 3.31429 
7 *14:25 *673:D 42.9093 
8 *14:25 *14:42 34.5838 
9 *14:42 *683:D 23 
10 *14:9 *682:D 36.9821 
*END

*D_NET *15 0.00175868
*CONN
*I *674:D I *D sky130_fd_sc_hd__dfrtp_2
*I *656:X O *D sky130_fd_sc_hd__o21ba_1
*CAP
1 *674:D 0
2 *656:X 0.000275864
3 *15:6 0.000275864
4 *15:6 *20:13 0.000345121
5 *15:6 *44:8 8.85189e-05
6 *15:6 *57:10 0.000773316
*RES
1 *656:X *15:6 48.3571 
2 *15:6 *674:D 38 
*END

*D_NET *16 0.00401305
*CONN
*I *675:D I *D sky130_fd_sc_hd__dfrtp_2
*I *658:X O *D sky130_fd_sc_hd__o21a_1
*CAP
1 *675:D 0
2 *658:X 4.95724e-05
3 *16:11 0.00128774
4 *16:7 0.00133731
5 *16:7 *658:B1 2.30292e-05
6 *16:7 *680:GATE_N 2.64616e-05
7 *16:11 *642:A1 5.79413e-06
8 *16:11 *650:A1 1.05658e-05
9 *16:11 *650:B1 0.000187453
10 *16:11 *659:B1_N 0.000192087
11 *16:11 *660:A1_N 0
12 *16:11 *675:RESET_B 0.000120439
13 *16:11 *22:6 8.83395e-05
14 *16:11 *29:6 0
15 *16:11 *36:8 6.25781e-05
16 *16:11 *37:30 0.00015795
17 *16:11 *49:54 0
18 *16:11 *59:28 6.17437e-06
19 *16:11 *59:47 0
20 *16:11 *61:8 1.59094e-05
21 *16:11 *62:6 0.000241346
22 *4:17 *16:7 0.000140259
23 *14:6 *16:11 6.0039e-05
24 *14:15 *16:11 0
25 *14:18 *16:11 0
*RES
1 *658:X *16:7 39.5743 
2 *16:7 *16:11 39.94 
3 *16:11 *675:D 23 
*END

*D_NET *17 0.0021184
*CONN
*I *676:D I *D sky130_fd_sc_hd__dfrtp_1
*I *660:X O *D sky130_fd_sc_hd__o2bb2a_1
*CAP
1 *676:D 0
2 *660:X 0.000508826
3 *17:8 0.000508826
4 *17:8 *656:B1_N 0.000401833
5 *17:8 *674:RESET_B 0.000538953
6 *17:8 *56:10 0.000159967
7 *17:8 *58:18 0
*RES
1 *660:X *17:8 49.6207 
2 *17:8 *676:D 38 
*END

*D_NET *18 0.00207562
*CONN
*I *679:GATE_N I *D sky130_fd_sc_hd__dlxtn_1
*I *644:X O *D sky130_fd_sc_hd__clkbuf_1
*CAP
1 *679:GATE_N 0
2 *644:X 0.000227558
3 *18:10 0.000615454
4 *18:7 0.000843012
5 *18:10 *33:8 0
6 *18:10 *39:6 0.000333975
7 *18:10 *44:8 0
8 *18:10 *57:10 0
9 *18:10 *59:82 0
10 *10:18 *18:10 5.56203e-05
*RES
1 *644:X *18:7 41.0036 
2 *18:7 *18:10 28.1743 
3 *18:10 *679:GATE_N 23 
*END

*D_NET *19 0.00166406
*CONN
*I *680:GATE_N I *D sky130_fd_sc_hd__dlxtn_2
*I *645:Y O *D sky130_fd_sc_hd__nand3b_1
*CAP
1 *680:GATE_N 0.00014283
2 *645:Y 0.000401376
3 *19:8 0.000544206
4 *19:8 *645:A_N 0.000272383
5 *19:8 *54:23 5.31757e-05
6 *4:17 *680:GATE_N 8.17462e-05
7 *14:6 *19:8 0.000141879
8 *16:7 *680:GATE_N 2.64616e-05
*RES
1 *645:Y *19:8 44.815 
2 *19:8 *680:GATE_N 41.0036 
*END

*D_NET *20 0.00455631
*CONN
*I *681:GATE_N I *D sky130_fd_sc_hd__dlxtn_1
*I *666:X O *D sky130_fd_sc_hd__clkbuf_1
*CAP
1 *681:GATE_N 0
2 *666:X 7.61854e-05
3 *20:13 0.000789279
4 *20:7 0.000865464
5 *20:7 *666:A 2.93747e-05
6 *20:7 *57:7 5.73288e-05
7 *20:13 *675:RESET_B 0.000333286
8 *20:13 *27:8 8.62876e-05
9 *20:13 *44:8 0.000324733
10 *20:13 *46:28 9.90115e-05
11 *20:13 *54:37 0.000757854
12 *20:13 *57:10 0.000133188
13 *4:11 *20:7 9.58714e-05
14 *7:24 *20:13 6.12228e-05
15 *13:11 *20:13 0.0005021
16 *15:6 *20:13 0.000345121
*RES
1 *666:X *20:7 40.0507 
2 *20:7 *20:13 40.7479 
3 *20:13 *681:GATE_N 23 
*END

*D_NET *21 0.000363904
*CONN
*I *682:GATE_N I *D sky130_fd_sc_hd__dlxtn_1
*I *648:X O *D sky130_fd_sc_hd__clkbuf_1
*CAP
1 *682:GATE_N 0
2 *648:X 0.000181952
3 *21:8 0.000181952
*RES
1 *648:X *21:8 40.5271 
2 *21:8 *682:GATE_N 38 
*END

*D_NET *22 0.00110082
*CONN
*I *683:GATE_N I *D sky130_fd_sc_hd__dlxtn_1
*I *650:X O *D sky130_fd_sc_hd__a21o_1
*CAP
1 *683:GATE_N 0
2 *650:X 0.000370321
3 *22:6 0.000370321
4 *22:6 *650:B1 1.52362e-05
5 *22:6 *29:6 0.000126096
6 *22:6 *42:14 0
7 *22:6 *59:10 7.02674e-05
8 *22:6 *59:28 1.02561e-05
9 *13:6 *22:6 0
10 *14:42 *22:6 4.9981e-05
11 *16:11 *22:6 8.83395e-05
*RES
1 *650:X *22:6 45.8921 
2 *22:6 *683:GATE_N 38 
*END

*D_NET *23 0.00150558
*CONN
*I *672:GATE_N I *D sky130_fd_sc_hd__dlxtn_1
*I *640:X O *D sky130_fd_sc_hd__a21o_1
*CAP
1 *672:GATE_N 0
2 *640:X 0.000519844
3 *23:7 0.000519844
4 *23:7 *640:B1 0.000220661
5 *23:7 *59:28 6.41086e-05
6 *23:7 *61:8 0.000181125
*RES
1 *640:X *23:7 33.6471 
2 *23:7 *672:GATE_N 23 
*END

*D_NET *24 0.00112822
*CONN
*I *673:GATE_N I *D sky130_fd_sc_hd__dlxtn_1
*I *642:X O *D sky130_fd_sc_hd__a21o_1
*CAP
1 *673:GATE_N 0
2 *642:X 0.000211631
3 *24:5 0.000211631
4 *24:5 *678:RESET_B 7.59794e-05
5 *673:D *24:5 0.000317087
6 *7:24 *24:5 0.00026808
7 *13:11 *24:5 4.38084e-05
*RES
1 *642:X *24:5 29.3386 
2 *24:5 *673:GATE_N 23 
*END

*D_NET *25 0.00610535
*CONN
*I *674:RESET_B I *D sky130_fd_sc_hd__dfrtp_2
*I *667:Y O *D sky130_fd_sc_hd__inv_2
*CAP
1 *674:RESET_B 0.000604508
2 *667:Y 0.000815721
3 *25:5 0.00142023
4 *674:RESET_B *643:B 0
5 *674:RESET_B *652:A 0.000432763
6 *674:RESET_B *675:CLK 3.34818e-06
7 *674:RESET_B *680:D 0.000341474
8 *674:RESET_B *30:21 8.9458e-05
9 *674:RESET_B *30:28 0.000194318
10 *674:RESET_B *30:39 0.000683806
11 *674:RESET_B *48:10 1.01436e-05
12 *674:RESET_B *56:10 3.49587e-05
13 *674:RESET_B *58:18 0
14 *674:RESET_B *58:20 0
15 *25:5 *59:52 0.00010018
16 *25:5 *59:56 0.000835492
17 *17:8 *674:RESET_B 0.000538953
*RES
1 *667:Y *25:5 35.5321 
2 *25:5 *674:RESET_B 49.5129 
*END

*D_NET *26 0.00312065
*CONN
*I *675:RESET_B I *D sky130_fd_sc_hd__dfrtp_2
*I *668:Y O *D sky130_fd_sc_hd__inv_2
*CAP
1 *675:RESET_B 0.000546858
2 *668:Y 0.000271954
3 *26:7 0.000818812
4 *675:RESET_B *675:CLK 2.93845e-05
5 *675:RESET_B *54:37 0.000460568
6 *26:7 *670:A 0.000362883
7 *26:7 *28:8 5.56279e-05
8 *26:7 *53:13 0.000120835
9 *16:11 *675:RESET_B 0.000120439
10 *20:13 *675:RESET_B 0.000333286
*RES
1 *668:Y *26:7 44.3386 
2 *26:7 *675:RESET_B 27.0868 
*END

*D_NET *27 0.0031917
*CONN
*I *676:RESET_B I *D sky130_fd_sc_hd__dfrtp_1
*I *669:Y O *D sky130_fd_sc_hd__inv_2
*CAP
1 *676:RESET_B 0.000428623
2 *669:Y 0.000622289
3 *27:8 0.00105091
4 *676:RESET_B *676:CLK 2.93845e-05
5 *676:RESET_B *58:8 0.000147706
6 *27:8 *45:9 0.000221997
7 *27:8 *49:31 2.4754e-05
8 *27:8 *49:54 0.000495702
9 *27:8 *54:37 8.4047e-05
10 *20:13 *27:8 8.62876e-05
*RES
1 *669:Y *27:8 47.9221 
2 *27:8 *676:RESET_B 20.9554 
*END

*D_NET *28 0.00222685
*CONN
*I *677:RESET_B I *D sky130_fd_sc_hd__dfrtp_1
*I *670:Y O *D sky130_fd_sc_hd__inv_2
*CAP
1 *677:RESET_B 5.11262e-05
2 *670:Y 0.000684623
3 *28:8 0.000735749
4 *677:RESET_B *56:17 5.02669e-05
5 *28:8 *46:28 0
6 *28:8 *49:36 0
7 *28:8 *57:10 0.000649458
8 *26:7 *28:8 5.56279e-05
*RES
1 *670:Y *28:8 49.6829 
2 *28:8 *677:RESET_B 16.0254 
*END

*D_NET *29 0.00278312
*CONN
*I *678:RESET_B I *D sky130_fd_sc_hd__dfrtp_4
*I *671:Y O *D sky130_fd_sc_hd__inv_2
*CAP
1 *678:RESET_B 0.000191089
2 *671:Y 0.000425059
3 *29:6 0.000616149
4 *678:RESET_B *642:A2 5.50106e-05
5 *678:RESET_B *59:7 0.000164186
6 *7:24 *678:RESET_B 0.000123546
7 *13:11 *678:RESET_B 0.000831473
8 *14:18 *29:6 9.96459e-05
9 *14:25 *29:6 7.20635e-05
10 *14:42 *29:6 2.82419e-06
11 *16:11 *29:6 0
12 *22:6 *29:6 0.000126096
13 *24:5 *678:RESET_B 7.59794e-05
*RES
1 *671:Y *29:6 46.2443 
2 *29:6 *678:RESET_B 24.1246 
*END

*D_NET *30 0.0140993
*CONN
*I *658:A1 I *D sky130_fd_sc_hd__o21a_1
*I *645:A_N I *D sky130_fd_sc_hd__nand3b_1
*I *660:B2 I *D sky130_fd_sc_hd__o2bb2a_1
*I *640:A1 I *D sky130_fd_sc_hd__a21o_1
*I *642:A1 I *D sky130_fd_sc_hd__a21o_1
*I *650:A1 I *D sky130_fd_sc_hd__a21o_1
*I *661:A_N I *D sky130_fd_sc_hd__and3b_2
*I *665:A I *D sky130_fd_sc_hd__clkbuf_1
*I *656:A1 I *D sky130_fd_sc_hd__o21ba_1
*I *652:A I *D sky130_fd_sc_hd__or2b_1
*I *638:X O *D sky130_fd_sc_hd__buf_2
*CAP
1 *658:A1 0
2 *645:A_N 0.000334711
3 *660:B2 0
4 *640:A1 0.00109655
5 *642:A1 0.000179403
6 *650:A1 1.11434e-05
7 *661:A_N 0.00083171
8 *665:A 5.145e-05
9 *656:A1 0
10 *652:A 0.000211617
11 *638:X 0.000237275
12 *30:82 0.000427416
13 *30:52 0.000190547
14 *30:50 0.00184586
15 *30:39 0.00185783
16 *30:28 0.000434345
17 *30:21 0.000134869
18 *30:11 0.000778896
19 *30:7 0.000677056
20 *30:5 0.000468544
21 *640:A1 *31:8 0.00012758
22 *642:A1 *642:A2 0.00019571
23 *642:A1 *650:B1 0.000260688
24 *642:A1 *59:10 6.78718e-05
25 *645:A_N *645:C 3.10947e-05
26 *645:A_N *54:9 1.98598e-05
27 *645:A_N *54:23 0.000152847
28 *645:A_N *59:47 0
29 *650:A1 *642:A2 5.79413e-06
30 *650:A1 *36:8 1.05441e-05
31 *652:A *643:B 0
32 *652:A *37:16 0.000177925
33 *652:A *54:23 5.50049e-05
34 *652:A *54:37 0
35 *661:A_N *45:6 2.46922e-05
36 *661:A_N *49:36 9.85586e-06
37 *30:5 *638:A 0.000272383
38 *30:7 *638:A 0.000180212
39 *30:11 *638:A 0.00044586
40 *30:11 *37:19 0.000164354
41 *30:21 *37:16 4.07715e-05
42 *30:28 *54:37 0
43 *30:39 *675:CLK 5.14372e-05
44 *30:39 *47:6 6.6869e-05
45 *30:39 *47:15 7.56417e-05
46 *30:39 *54:37 6.98616e-05
47 *30:82 *37:30 0.000110913
48 *30:82 *59:47 0
49 *674:RESET_B *652:A 0.000432763
50 *674:RESET_B *30:21 8.9458e-05
51 *674:RESET_B *30:28 0.000194318
52 *674:RESET_B *30:39 0.000683806
53 *682:D *30:5 2.31797e-05
54 *14:6 *645:A_N 0
55 *14:6 *30:82 0
56 *14:42 *640:A1 0
57 *16:11 *642:A1 5.79413e-06
58 *16:11 *650:A1 1.05658e-05
59 *19:8 *645:A_N 0.000272383
*RES
1 *638:X *30:5 26.9564 
2 *30:5 *30:7 2.05071 
3 *30:7 *30:11 23.2443 
4 *30:11 *652:A 44.4007 
5 *30:11 *30:21 1.20143 
6 *30:21 *656:A1 38 
7 *30:21 *30:28 2.61 
8 *30:28 *665:A 38.6214 
9 *30:28 *30:39 17.1246 
10 *30:39 *661:A_N 48.0944 
11 *30:39 *30:50 1.51573 
12 *30:50 *30:52 8 
13 *30:52 *650:A1 38.3211 
14 *30:52 *642:A1 43.6032 
15 *30:50 *640:A1 49.8464 
16 *30:7 *660:B2 23 
17 *30:5 *30:82 16.9057 
18 *30:82 *645:A_N 46.0164 
19 *30:82 *658:A1 38 
*END

*D_NET *31 0.000885664
*CONN
*I *640:A2 I *D sky130_fd_sc_hd__a21o_1
*I *639:X O *D sky130_fd_sc_hd__or3b_1
*CAP
1 *640:A2 0
2 *639:X 0.000379042
3 *31:8 0.000379042
4 *31:8 *641:A_N 0
5 *31:8 *59:45 0
6 *31:8 *60:54 0
7 *31:8 *60:56 0
8 *640:A1 *31:8 0.00012758
*RES
1 *639:X *31:8 44.2971 
2 *31:8 *640:A2 38 
*END

*D_NET *32 0.00447881
*CONN
*I *642:A2 I *D sky130_fd_sc_hd__a21o_1
*I *660:A1_N I *D sky130_fd_sc_hd__o2bb2a_1
*I *641:Y O *D sky130_fd_sc_hd__nand3b_1
*CAP
1 *642:A2 0.000334975
2 *660:A1_N 0.000370829
3 *641:Y 0.000439681
4 *32:11 0.00114549
5 *642:A2 *36:8 8.79039e-05
6 *642:A2 *59:7 5.50106e-05
7 *660:A1_N *656:B1_N 0.00022623
8 *660:A1_N *36:8 0.00030233
9 *660:A1_N *37:19 0.000102252
10 *660:A1_N *60:8 0.000163752
11 *660:A1_N *60:21 0.000166477
12 *660:A1_N *61:27 0.000111138
13 *660:A1_N *62:6 1.17152e-05
14 *32:11 *60:47 0.000667493
15 *642:A1 *642:A2 0.00019571
16 *650:A1 *642:A2 5.79413e-06
17 *678:RESET_B *642:A2 5.50106e-05
18 *14:6 *660:A1_N 3.70187e-05
19 *16:11 *660:A1_N 0
*RES
1 *641:Y *32:11 46.2857 
2 *32:11 *660:A1_N 49.4705 
3 *32:11 *642:A2 45.4571 
*END

*D_NET *33 0.00171855
*CONN
*I *644:A I *D sky130_fd_sc_hd__clkbuf_1
*I *643:X O *D sky130_fd_sc_hd__or3b_1
*CAP
1 *644:A 0
2 *643:X 0.000713935
3 *33:8 0.000713935
4 *33:8 *643:C_N 0.00023206
5 *33:8 *55:6 5.86165e-05
6 *18:10 *33:8 0
*RES
1 *643:X *33:8 48.9786 
2 *33:8 *644:A 38 
*END

*D_NET *34 0.0011709
*CONN
*I *647:B I *D sky130_fd_sc_hd__or2_1
*I *646:X O *D sky130_fd_sc_hd__o31a_1
*CAP
1 *647:B 0
2 *646:X 0.000422173
3 *34:8 0.000422173
4 *34:8 *646:A2 4.9662e-05
5 *34:8 *59:45 0
6 *34:8 *61:15 0.000107226
7 *14:15 *34:8 0.000169665
*RES
1 *646:X *34:8 44.6907 
2 *34:8 *647:B 38 
*END

*D_NET *35 0.000965125
*CONN
*I *648:A I *D sky130_fd_sc_hd__clkbuf_1
*I *647:X O *D sky130_fd_sc_hd__or2_1
*CAP
1 *648:A 0
2 *647:X 0.000476344
3 *35:5 0.000476344
4 *35:5 *647:A 1.24376e-05
*RES
1 *647:X *35:5 31.2443 
2 *35:5 *648:A 23 
*END

*D_NET *36 0.00196679
*CONN
*I *650:A2 I *D sky130_fd_sc_hd__a21o_1
*I *649:X O *D sky130_fd_sc_hd__or3b_1
*CAP
1 *650:A2 0
2 *649:X 0.00050655
3 *36:8 0.00050655
4 *36:8 *49:54 0.000310641
5 *36:8 *61:15 9.45591e-05
6 *36:8 *62:6 8.51329e-05
7 *642:A2 *36:8 8.79039e-05
8 *650:A1 *36:8 1.05441e-05
9 *660:A1_N *36:8 0.00030233
10 *16:11 *36:8 6.25781e-05
*RES
1 *649:X *36:8 48.4607 
2 *36:8 *650:A2 38 
*END

*D_NET *37 0.00429004
*CONN
*I *656:A2 I *D sky130_fd_sc_hd__o21ba_1
*I *658:A2 I *D sky130_fd_sc_hd__o21a_1
*I *660:B1 I *D sky130_fd_sc_hd__o2bb2a_1
*I *652:B_N I *D sky130_fd_sc_hd__or2b_1
*I *651:X O *D sky130_fd_sc_hd__or2_1
*CAP
1 *656:A2 0
2 *658:A2 0
3 *660:B1 0
4 *652:B_N 0
5 *651:X 0.00046256
6 *37:30 0.00013328
7 *37:19 0.000412373
8 *37:16 0.000519302
9 *37:5 0.000702768
10 *37:5 *54:23 6.17437e-06
11 *37:16 *54:23 4.79641e-05
12 *37:16 *54:37 0.000222193
13 *37:19 *638:A 0.000489335
14 *37:19 *656:B1_N 0.000353481
15 *37:30 *638:A 8.264e-05
16 *652:A *37:16 0.000177925
17 *660:A1_N *37:19 0.000102252
18 *14:9 *37:19 5.41385e-05
19 *14:9 *37:30 4.9662e-05
20 *16:11 *37:30 0.00015795
21 *30:11 *37:19 0.000164354
22 *30:21 *37:16 4.07715e-05
23 *30:82 *37:30 0.000110913
*RES
1 *651:X *37:5 30.2914 
2 *37:5 *652:B_N 23 
3 *37:5 *37:16 36.8771 
4 *37:16 *37:19 10.1707 
5 *37:19 *660:B1 23 
6 *37:19 *37:30 33.3557 
7 *37:30 *658:A2 23 
8 *37:16 *656:A2 23 
*END

*D_NET *38 0.00189807
*CONN
*I *653:A I *D sky130_fd_sc_hd__clkbuf_1
*I *652:X O *D sky130_fd_sc_hd__or2b_1
*CAP
1 *653:A 0
2 *652:X 0.000609467
3 *38:8 0.000609467
4 *38:8 *664:A 7.43941e-05
5 *38:8 *54:23 4.27353e-05
6 *38:8 *58:18 0.000243587
7 *38:8 *58:20 0.00031842
*RES
1 *652:X *38:8 49.02 
2 *38:8 *653:A 38 
*END

*D_NET *39 0.00142982
*CONN
*I *655:A I *D sky130_fd_sc_hd__clkbuf_1
*I *654:X O *D sky130_fd_sc_hd__clkbuf_1
*CAP
1 *655:A 5.13614e-05
2 *654:X 0.000289545
3 *39:6 0.000340906
4 *39:6 *55:6 0
5 *39:6 *59:59 0.000126936
6 *39:6 *59:70 9.39056e-05
7 *39:6 *59:82 9.64022e-05
8 *10:18 *655:A 9.67842e-05
9 *18:10 *39:6 0.000333975
*RES
1 *654:X *39:6 46.9486 
2 *39:6 *655:A 39.0979 
*END

*D_NET *40 0.00172004
*CONN
*I *658:B1 I *D sky130_fd_sc_hd__o21a_1
*I *657:X O *D sky130_fd_sc_hd__xor2_1
*CAP
1 *658:B1 0.000425005
2 *657:X 0.000255295
3 *40:8 0.0006803
4 *40:8 *59:47 0
5 *40:8 *59:52 0
6 *40:8 *60:69 0.000160692
7 *4:17 *658:B1 0.000175716
8 *16:7 *658:B1 2.30292e-05
*RES
1 *657:X *40:8 42.9921 
2 *40:8 *658:B1 46.265 
*END

*D_NET *41 0.000203663
*CONN
*I *660:A2_N I *D sky130_fd_sc_hd__o2bb2a_1
*I *659:X O *D sky130_fd_sc_hd__a21bo_1
*CAP
1 *660:A2_N 0