*SPEF "ieee 1481-1999"
*DESIGN "spi_register"
*DATE "11:11:11 Fri 11 11, 1111"
*VENDOR "OpenRCX"
*PROGRAM "Parallel Extraction"
*VERSION "1.0"
*DESIGN_FLOW "NAME_SCOPE LOCAL" "PIN_CAP NONE"
*DIVIDER /
*DELIMITER :
*BUS_DELIMITER []
*T_UNIT 1 NS
*C_UNIT 1 PF
*R_UNIT 1 OHM
*L_UNIT 1 HENRY

*NAME_MAP
*1 reg_addr[0]
*2 reg_addr[1]
*3 reg_addr[2]
*4 reg_bus
*5 reg_clk
*6 reg_data[0]
*7 reg_data[1]
*8 reg_data[2]
*9 reg_data[3]
*10 reg_data[4]
*11 reg_data[5]
*12 reg_data[6]
*13 reg_data[7]
*14 reg_dir
*17 _00_
*18 _01_
*19 _02_
*20 _03_
*21 _04_
*22 _05_
*23 _06_
*24 _07_
*25 _12_
*26 _13_
*27 _14_
*28 _16_
*29 _17_
*30 _18_
*31 _19_
*32 _20_
*33 _21_
*34 _22_
*35 _23_
*36 _24_
*37 _25_
*38 _26_
*39 _27_
*40 _28_
*41 _29_
*42 _30_
*43 _31_
*44 _32_
*45 _33_
*46 clknet_0_reg_clk
*47 clknet_1_0__leaf_reg_clk
*48 clknet_1_1__leaf_reg_clk
*49 data_t
*50 net1
*51 net10
*52 net11
*53 net12
*54 net13
*55 net14
*56 net15
*57 net16
*58 net17
*59 net2
*60 net3
*61 net4
*62 net5
*63 net6
*64 net7
*65 net8
*66 net9
*67 t\[0\]
*68 t\[1\]
*69 t\[2\]
*70 t\[3\]
*71 ANTENNA__62__A0
*72 ANTENNA__62__A1
*73 ANTENNA__62__A2
*74 ANTENNA__62__A3
*75 ANTENNA__71__D
*76 ANTENNA__72__D
*77 ANTENNA__73__D
*78 ANTENNA__74__D
*79 ANTENNA__75__D
*80 ANTENNA__76__D
*81 ANTENNA__77__D
*82 ANTENNA__78__D
*83 ANTENNA_clkbuf_0_reg_clk_A
*84 ANTENNA_input1_A
*85 ANTENNA_input2_A
*86 ANTENNA_input3_A
*87 ANTENNA_input4_A
*88 ANTENNA_output5_A
*89 ANTENNA_output6_A
*90 ANTENNA_output7_A
*91 ANTENNA_output8_A
*92 FILLER_0_100
*93 FILLER_0_106
*94 FILLER_0_113
*95 FILLER_0_125
*96 FILLER_0_137
*97 FILLER_0_14
*98 FILLER_0_141
*99 FILLER_0_146
*100 FILLER_0_152
*101 FILLER_0_164
*102 FILLER_0_169
*103 FILLER_0_177
*104 FILLER_0_194
*105 FILLER_0_197
*106 FILLER_0_20
*107 FILLER_0_201
*108 FILLER_0_222
*109 FILLER_0_225
*110 FILLER_0_29
*111 FILLER_0_3
*112 FILLER_0_41
*113 FILLER_0_53
*114 FILLER_0_57
*115 FILLER_0_62
*116 FILLER_0_68
*117 FILLER_0_80
*118 FILLER_0_85
*119 FILLER_10_109
*120 FILLER_10_121
*121 FILLER_10_133
*122 FILLER_10_139
*123 FILLER_10_141
*124 FILLER_10_15
*125 FILLER_10_153
*126 FILLER_10_165
*127 FILLER_10_177
*128 FILLER_10_189
*129 FILLER_10_195
*130 FILLER_10_197
*131 FILLER_10_209
*132 FILLER_10_221
*133 FILLER_10_27
*134 FILLER_10_29
*135 FILLER_10_3
*136 FILLER_10_41
*137 FILLER_10_53
*138 FILLER_10_65
*139 FILLER_10_77
*140 FILLER_10_83
*141 FILLER_10_85
*142 FILLER_10_97
*143 FILLER_11_105
*144 FILLER_11_111
*145 FILLER_11_113
*146 FILLER_11_125
*147 FILLER_11_137
*148 FILLER_11_149
*149 FILLER_11_15
*150 FILLER_11_161
*151 FILLER_11_167
*152 FILLER_11_169
*153 FILLER_11_181
*154 FILLER_11_193
*155 FILLER_11_205
*156 FILLER_11_217
*157 FILLER_11_223
*158 FILLER_11_225
*159 FILLER_11_27
*160 FILLER_11_3
*161 FILLER_11_39
*162 FILLER_11_51
*163 FILLER_11_55
*164 FILLER_11_57
*165 FILLER_11_69
*166 FILLER_11_81
*167 FILLER_11_93
*168 FILLER_12_109
*169 FILLER_12_121
*170 FILLER_12_133
*171 FILLER_12_139
*172 FILLER_12_141
*173 FILLER_12_15
*174 FILLER_12_153
*175 FILLER_12_165
*176 FILLER_12_177
*177 FILLER_12_189
*178 FILLER_12_195
*179 FILLER_12_197
*180 FILLER_12_209
*181 FILLER_12_213
*182 FILLER_12_220
*183 FILLER_12_232
*184 FILLER_12_27
*185 FILLER_12_29
*186 FILLER_12_3
*187 FILLER_12_41
*188 FILLER_12_53
*189 FILLER_12_65
*190 FILLER_12_77
*191 FILLER_12_83
*192 FILLER_12_85
*193 FILLER_12_97
*194 FILLER_13_105
*195 FILLER_13_111
*196 FILLER_13_113
*197 FILLER_13_125
*198 FILLER_13_137
*199 FILLER_13_149
*200 FILLER_13_15
*201 FILLER_13_161
*202 FILLER_13_167
*203 FILLER_13_169
*204 FILLER_13_181
*205 FILLER_13_189
*206 FILLER_13_200
*207 FILLER_13_212
*208 FILLER_13_221
*209 FILLER_13_225
*210 FILLER_13_231
*211 FILLER_13_27
*212 FILLER_13_3
*213 FILLER_13_39
*214 FILLER_13_51
*215 FILLER_13_55
*216 FILLER_13_57
*217 FILLER_13_69
*218 FILLER_13_81
*219 FILLER_13_93
*220 FILLER_14_109
*221 FILLER_14_121
*222 FILLER_14_133
*223 FILLER_14_139
*224 FILLER_14_141
*225 FILLER_14_15
*226 FILLER_14_153
*227 FILLER_14_165
*228 FILLER_14_177
*229 FILLER_14_185
*230 FILLER_14_193
*231 FILLER_14_197
*232 FILLER_14_203
*233 FILLER_14_210
*234 FILLER_14_218
*235 FILLER_14_224
*236 FILLER_14_232
*237 FILLER_14_27
*238 FILLER_14_29
*239 FILLER_14_3
*240 FILLER_14_41
*241 FILLER_14_53
*242 FILLER_14_65
*243 FILLER_14_77
*244 FILLER_14_83
*245 FILLER_14_85
*246 FILLER_14_97
*247 FILLER_15_105
*248 FILLER_15_111
*249 FILLER_15_113
*250 FILLER_15_125
*251 FILLER_15_137
*252 FILLER_15_149
*253 FILLER_15_15
*254 FILLER_15_161
*255 FILLER_15_167
*256 FILLER_15_169
*257 FILLER_15_177
*258 FILLER_15_181
*259 FILLER_15_206
*260 FILLER_15_217
*261 FILLER_15_223
*262 FILLER_15_225
*263 FILLER_15_229
*264 FILLER_15_27
*265 FILLER_15_3
*266 FILLER_15_39
*267 FILLER_15_51
*268 FILLER_15_55
*269 FILLER_15_57
*270 FILLER_15_69
*271 FILLER_15_81
*272 FILLER_15_93
*273 FILLER_16_109
*274 FILLER_16_121
*275 FILLER_16_133
*276 FILLER_16_139
*277 FILLER_16_141
*278 FILLER_16_15
*279 FILLER_16_153
*280 FILLER_16_165
*281 FILLER_16_173
*282 FILLER_16_178
*283 FILLER_16_186
*284 FILLER_16_189
*285 FILLER_16_195
*286 FILLER_16_197
*287 FILLER_16_202
*288 FILLER_16_208
*289 FILLER_16_217
*290 FILLER_16_231
*291 FILLER_16_27
*292 FILLER_16_29
*293 FILLER_16_3
*294 FILLER_16_41
*295 FILLER_16_53
*296 FILLER_16_65
*297 FILLER_16_77
*298 FILLER_16_83
*299 FILLER_16_85
*300 FILLER_16_97
*301 FILLER_17_105
*302 FILLER_17_111
*303 FILLER_17_113
*304 FILLER_17_125
*305 FILLER_17_137
*306 FILLER_17_149
*307 FILLER_17_15
*308 FILLER_17_161
*309 FILLER_17_167
*310 FILLER_17_169
*311 FILLER_17_187
*312 FILLER_17_191
*313 FILLER_17_204
*314 FILLER_17_220
*315 FILLER_17_225
*316 FILLER_17_27
*317 FILLER_17_3
*318 FILLER_17_39
*319 FILLER_17_51
*320 FILLER_17_55
*321 FILLER_17_57
*322 FILLER_17_69
*323 FILLER_17_81
*324 FILLER_17_93
*325 FILLER_18_109
*326 FILLER_18_121
*327 FILLER_18_133
*328 FILLER_18_139
*329 FILLER_18_141
*330 FILLER_18_15
*331 FILLER_18_153
*332 FILLER_18_165
*333 FILLER_18_171
*334 FILLER_18_175
*335 FILLER_18_182
*336 FILLER_18_188
*337 FILLER_18_194
*338 FILLER_18_197
*339 FILLER_18_202
*340 FILLER_18_214
*341 FILLER_18_226
*342 FILLER_18_232
*343 FILLER_18_27
*344 FILLER_18_29
*345 FILLER_18_3
*346 FILLER_18_41
*347 FILLER_18_53
*348 FILLER_18_65
*349 FILLER_18_77
*350 FILLER_18_83
*351 FILLER_18_85
*352 FILLER_18_97
*353 FILLER_19_105
*354 FILLER_19_111
*355 FILLER_19_113
*356 FILLER_19_125
*357 FILLER_19_137
*358 FILLER_19_149
*359 FILLER_19_15
*360 FILLER_19_161
*361 FILLER_19_167
*362 FILLER_19_169
*363 FILLER_19_184
*364 FILLER_19_190
*365 FILLER_19_197
*366 FILLER_19_207
*367 FILLER_19_219
*368 FILLER_19_223
*369 FILLER_19_225
*370 FILLER_19_27
*371 FILLER_19_3
*372 FILLER_19_39
*373 FILLER_19_51
*374 FILLER_19_55
*375 FILLER_19_57
*376 FILLER_19_69
*377 FILLER_19_81
*378 FILLER_19_93
*379 FILLER_1_105
*380 FILLER_1_111
*381 FILLER_1_113
*382 FILLER_1_125
*383 FILLER_1_141
*384 FILLER_1_15
*385 FILLER_1_151
*386 FILLER_1_158
*387 FILLER_1_166
*388 FILLER_1_169
*389 FILLER_1_181
*390 FILLER_1_185
*391 FILLER_1_206
*392 FILLER_1_213
*393 FILLER_1_221
*394 FILLER_1_225
*395 FILLER_1_231
*396 FILLER_1_27
*397 FILLER_1_3
*398 FILLER_1_39
*399 FILLER_1_51
*400 FILLER_1_55
*401 FILLER_1_57
*402 FILLER_1_69
*403 FILLER_1_81
*404 FILLER_1_93
*405 FILLER_20_109
*406 FILLER_20_121
*407 FILLER_20_133
*408 FILLER_20_139
*409 FILLER_20_141
*410 FILLER_20_15
*411 FILLER_20_153
*412 FILLER_20_165
*413 FILLER_20_171
*414 FILLER_20_175
*415 FILLER_20_182
*416 FILLER_20_188
*417 FILLER_20_197
*418 FILLER_20_220
*419 FILLER_20_232
*420 FILLER_20_27
*421 FILLER_20_29
*422 FILLER_20_3
*423 FILLER_20_41
*424 FILLER_20_53
*425 FILLER_20_65
*426 FILLER_20_77
*427 FILLER_20_83
*428 FILLER_20_85
*429 FILLER_20_97
*430 FILLER_21_105
*431 FILLER_21_111
*432 FILLER_21_113
*433 FILLER_21_125
*434 FILLER_21_137
*435 FILLER_21_149
*436 FILLER_21_15
*437 FILLER_21_161
*438 FILLER_21_167
*439 FILLER_21_169
*440 FILLER_21_183
*441 FILLER_21_191
*442 FILLER_21_195
*443 FILLER_21_207
*444 FILLER_21_219
*445 FILLER_21_223
*446 FILLER_21_225
*447 FILLER_21_27
*448 FILLER_21_3
*449 FILLER_21_39
*450 FILLER_21_51
*451 FILLER_21_55
*452 FILLER_21_57
*453 FILLER_21_69
*454 FILLER_21_81
*455 FILLER_21_93
*456 FILLER_22_109
*457 FILLER_22_121
*458 FILLER_22_133
*459 FILLER_22_139
*460 FILLER_22_141
*461 FILLER_22_15
*462 FILLER_22_153
*463 FILLER_22_165
*464 FILLER_22_169
*465 FILLER_22_182
*466 FILLER_22_188
*467 FILLER_22_194
*468 FILLER_22_197
*469 FILLER_22_211
*470 FILLER_22_223
*471 FILLER_22_231
*472 FILLER_22_27
*473 FILLER_22_29
*474 FILLER_22_3
*475 FILLER_22_41
*476 FILLER_22_53
*477 FILLER_22_65
*478 FILLER_22_77
*479 FILLER_22_83
*480 FILLER_22_85
*481 FILLER_22_97
*482 FILLER_23_105
*483 FILLER_23_111
*484 FILLER_23_113
*485 FILLER_23_125
*486 FILLER_23_137
*487 FILLER_23_149
*488 FILLER_23_15
*489 FILLER_23_161
*490 FILLER_23_167
*491 FILLER_23_169
*492 FILLER_23_173
*493 FILLER_23_176
*494 FILLER_23_192
*495 FILLER_23_204
*496 FILLER_23_216
*497 FILLER_23_225
*498 FILLER_23_27
*499 FILLER_23_3
*500 FILLER_23_39
*501 FILLER_23_51
*502 FILLER_23_55
*503 FILLER_23_57
*504 FILLER_23_69
*505 FILLER_23_81
*506 FILLER_23_93
*507 FILLER_24_109
*508 FILLER_24_121
*509 FILLER_24_133
*510 FILLER_24_139
*511 FILLER_24_141
*512 FILLER_24_15
*513 FILLER_24_153
*514 FILLER_24_165
*515 FILLER_24_177
*516 FILLER_24_189
*517 FILLER_24_195
*518 FILLER_24_197
*519 FILLER_24_209
*520 FILLER_24_221
*521 FILLER_24_27
*522 FILLER_24_29
*523 FILLER_24_3
*524 FILLER_24_41
*525 FILLER_24_53
*526 FILLER_24_65
*527 FILLER_24_77
*528 FILLER_24_83
*529 FILLER_24_85
*530 FILLER_24_97
*531 FILLER_25_105
*532 FILLER_25_111
*533 FILLER_25_113
*534 FILLER_25_125
*535 FILLER_25_137
*536 FILLER_25_149
*537 FILLER_25_15
*538 FILLER_25_161
*539 FILLER_25_167
*540 FILLER_25_169
*541 FILLER_25_181
*542 FILLER_25_193
*543 FILLER_25_205
*544 FILLER_25_217
*545 FILLER_25_223
*546 FILLER_25_225
*547 FILLER_25_27
*548 FILLER_25_3
*549 FILLER_25_39
*550 FILLER_25_51
*551 FILLER_25_55
*552 FILLER_25_57
*553 FILLER_25_69
*554 FILLER_25_81
*555 FILLER_25_93
*556 FILLER_26_109
*557 FILLER_26_121
*558 FILLER_26_133
*559 FILLER_26_139
*560 FILLER_26_141
*561 FILLER_26_15
*562 FILLER_26_153
*563 FILLER_26_165
*564 FILLER_26_177
*565 FILLER_26_189
*566 FILLER_26_195
*567 FILLER_26_197
*568 FILLER_26_209
*569 FILLER_26_221
*570 FILLER_26_27
*571 FILLER_26_29
*572 FILLER_26_3
*573 FILLER_26_41
*574 FILLER_26_53
*575 FILLER_26_65
*576 FILLER_26_77
*577 FILLER_26_83
*578 FILLER_26_85
*579 FILLER_26_97
*580 FILLER_27_105
*581 FILLER_27_111
*582 FILLER_27_113
*583 FILLER_27_125
*584 FILLER_27_137
*585 FILLER_27_149
*586 FILLER_27_15
*587 FILLER_27_161
*588 FILLER_27_167
*589 FILLER_27_169
*590 FILLER_27_181
*591 FILLER_27_193
*592 FILLER_27_205
*593 FILLER_27_217
*594 FILLER_27_223
*595 FILLER_27_225
*596 FILLER_27_27
*597 FILLER_27_3
*598 FILLER_27_39
*599 FILLER_27_51
*600 FILLER_27_55
*601 FILLER_27_57
*602 FILLER_27_69
*603 FILLER_27_81
*604 FILLER_27_93
*605 FILLER_28_109
*606 FILLER_28_121
*607 FILLER_28_133
*608 FILLER_28_139
*609 FILLER_28_141
*610 FILLER_28_15
*611 FILLER_28_153
*612 FILLER_28_165
*613 FILLER_28_177
*614 FILLER_28_189
*615 FILLER_28_195
*616 FILLER_28_197
*617 FILLER_28_209
*618 FILLER_28_221
*619 FILLER_28_27
*620 FILLER_28_29
*621 FILLER_28_3
*622 FILLER_28_41
*623 FILLER_28_53
*624 FILLER_28_65
*625 FILLER_28_77
*626 FILLER_28_83
*627 FILLER_28_85
*628 FILLER_28_97
*629 FILLER_29_105
*630 FILLER_29_111
*631 FILLER_29_113
*632 FILLER_29_125
*633 FILLER_29_137
*634 FILLER_29_149
*635 FILLER_29_15
*636 FILLER_29_161
*637 FILLER_29_167
*638 FILLER_29_169
*639 FILLER_29_181
*640 FILLER_29_193
*641 FILLER_29_205
*642 FILLER_29_217
*643 FILLER_29_223
*644 FILLER_29_225
*645 FILLER_29_27
*646 FILLER_29_3
*647 FILLER_29_39
*648 FILLER_29_51
*649 FILLER_29_55
*650 FILLER_29_57
*651 FILLER_29_69
*652 FILLER_29_81
*653 FILLER_29_93
*654 FILLER_2_109
*655 FILLER_2_121
*656 FILLER_2_133
*657 FILLER_2_139
*658 FILLER_2_141
*659 FILLER_2_15
*660 FILLER_2_153
*661 FILLER_2_161
*662 FILLER_2_166
*663 FILLER_2_172
*664 FILLER_2_194
*665 FILLER_2_197
*666 FILLER_2_204
*667 FILLER_2_210
*668 FILLER_2_231
*669 FILLER_2_27
*670 FILLER_2_29
*671 FILLER_2_3
*672 FILLER_2_41
*673 FILLER_2_53
*674 FILLER_2_65
*675 FILLER_2_77
*676 FILLER_2_83
*677 FILLER_2_85
*678 FILLER_2_97
*679 FILLER_30_109
*680 FILLER_30_121
*681 FILLER_30_133
*682 FILLER_30_139
*683 FILLER_30_141
*684 FILLER_30_15
*685 FILLER_30_153
*686 FILLER_30_165
*687 FILLER_30_177
*688 FILLER_30_189
*689 FILLER_30_195
*690 FILLER_30_197
*691 FILLER_30_209
*692 FILLER_30_221
*693 FILLER_30_27
*694 FILLER_30_29
*695 FILLER_30_3
*696 FILLER_30_41
*697 FILLER_30_53
*698 FILLER_30_65
*699 FILLER_30_77
*700 FILLER_30_83
*701 FILLER_30_85
*702 FILLER_30_97
*703 FILLER_31_105
*704 FILLER_31_111
*705 FILLER_31_113
*706 FILLER_31_125
*707 FILLER_31_137
*708 FILLER_31_149
*709 FILLER_31_15
*710 FILLER_31_161
*711 FILLER_31_167
*712 FILLER_31_169
*713 FILLER_31_181
*714 FILLER_31_193
*715 FILLER_31_205
*716 FILLER_31_217
*717 FILLER_31_223
*718 FILLER_31_225
*719 FILLER_31_27
*720 FILLER_31_3
*721 FILLER_31_39
*722 FILLER_31_51
*723 FILLER_31_55
*724 FILLER_31_57
*725 FILLER_31_69
*726 FILLER_31_81
*727 FILLER_31_93
*728 FILLER_32_109
*729 FILLER_32_121
*730 FILLER_32_133
*731 FILLER_32_139
*732 FILLER_32_141
*733 FILLER_32_15
*734 FILLER_32_153
*735 FILLER_32_165
*736 FILLER_32_177
*737 FILLER_32_189
*738 FILLER_32_195
*739 FILLER_32_197
*740 FILLER_32_209
*741 FILLER_32_221
*742 FILLER_32_27
*743 FILLER_32_29
*744 FILLER_32_3
*745 FILLER_32_41
*746 FILLER_32_53
*747 FILLER_32_65
*748 FILLER_32_77
*749 FILLER_32_83
*750 FILLER_32_85
*751 FILLER_32_97
*752 FILLER_33_105
*753 FILLER_33_111
*754 FILLER_33_113
*755 FILLER_33_125
*756 FILLER_33_137
*757 FILLER_33_149
*758 FILLER_33_15
*759 FILLER_33_161
*760 FILLER_33_167
*761 FILLER_33_169
*762 FILLER_33_181
*763 FILLER_33_193
*764 FILLER_33_205
*765 FILLER_33_217
*766 FILLER_33_223
*767 FILLER_33_225
*768 FILLER_33_27
*769 FILLER_33_3
*770 FILLER_33_39
*771 FILLER_33_51
*772 FILLER_33_55
*773 FILLER_33_57
*774 FILLER_33_69
*775 FILLER_33_81
*776 FILLER_33_93
*777 FILLER_34_109
*778 FILLER_34_121
*779 FILLER_34_133
*780 FILLER_34_139
*781 FILLER_34_141
*782 FILLER_34_15
*783 FILLER_34_153
*784 FILLER_34_165
*785 FILLER_34_177
*786 FILLER_34_189
*787 FILLER_34_195
*788 FILLER_34_197
*789 FILLER_34_209
*790 FILLER_34_221
*791 FILLER_34_27
*792 FILLER_34_29
*793 FILLER_34_3
*794 FILLER_34_41
*795 FILLER_34_53
*796 FILLER_34_65
*797 FILLER_34_77
*798 FILLER_34_83
*799 FILLER_34_85
*800 FILLER_34_97
*801 FILLER_35_107
*802 FILLER_35_11
*803 FILLER_35_111
*804 FILLER_35_113
*805 FILLER_35_117
*806 FILLER_35_129
*807 FILLER_35_137
*808 FILLER_35_141
*809 FILLER_35_147
*810 FILLER_35_159
*811 FILLER_35_167
*812 FILLER_35_169
*813 FILLER_35_17
*814 FILLER_35_175
*815 FILLER_35_187
*816 FILLER_35_195
*817 FILLER_35_197
*818 FILLER_35_203
*819 FILLER_35_215
*820 FILLER_35_223
*821 FILLER_35_225
*822 FILLER_35_231
*823 FILLER_35_25
*824 FILLER_35_29
*825 FILLER_35_3
*826 FILLER_35_37
*827 FILLER_35_43
*828 FILLER_35_49
*829 FILLER_35_55
*830 FILLER_35_57
*831 FILLER_35_69
*832 FILLER_35_75
*833 FILLER_35_81
*834 FILLER_35_85
*835 FILLER_35_97
*836 FILLER_3_105
*837 FILLER_3_111
*838 FILLER_3_113
*839 FILLER_3_125
*840 FILLER_3_137
*841 FILLER_3_149
*842 FILLER_3_15
*843 FILLER_3_161
*844 FILLER_3_167
*845 FILLER_3_169
*846 FILLER_3_181
*847 FILLER_3_189
*848 FILLER_3_194
*849 FILLER_3_201
*850 FILLER_3_222
*851 FILLER_3_225
*852 FILLER_3_230
*853 FILLER_3_27
*854 FILLER_3_3
*855 FILLER_3_39
*856 FILLER_3_51
*857 FILLER_3_55
*858 FILLER_3_57
*859 FILLER_3_69
*860 FILLER_3_81
*861 FILLER_3_93
*862 FILLER_4_109
*863 FILLER_4_121
*864 FILLER_4_133
*865 FILLER_4_139
*866 FILLER_4_141
*867 FILLER_4_15
*868 FILLER_4_153
*869 FILLER_4_165
*870 FILLER_4_177
*871 FILLER_4_189
*872 FILLER_4_195
*873 FILLER_4_197
*874 FILLER_4_222
*875 FILLER_4_229
*876 FILLER_4_27
*877 FILLER_4_29
*878 FILLER_4_3
*879 FILLER_4_41
*880 FILLER_4_53
*881 FILLER_4_65
*882 FILLER_4_77
*883 FILLER_4_83
*884 FILLER_4_85
*885 FILLER_4_97
*886 FILLER_5_105
*887 FILLER_5_111
*888 FILLER_5_113
*889 FILLER_5_125
*890 FILLER_5_137
*891 FILLER_5_149
*892 FILLER_5_15
*893 FILLER_5_161
*894 FILLER_5_167
*895 FILLER_5_169
*896 FILLER_5_181
*897 FILLER_5_193
*898 FILLER_5_205
*899 FILLER_5_222
*900 FILLER_5_225
*901 FILLER_5_27
*902 FILLER_5_3
*903 FILLER_5_39
*904 FILLER_5_51
*905 FILLER_5_55
*906 FILLER_5_57
*907 FILLER_5_69
*908 FILLER_5_81
*909 FILLER_5_93
*910 FILLER_6_109
*911 FILLER_6_121
*912 FILLER_6_133
*913 FILLER_6_139
*914 FILLER_6_141
*915 FILLER_6_15
*916 FILLER_6_153
*917 FILLER_6_165
*918 FILLER_6_177
*919 FILLER_6_189
*920 FILLER_6_195
*921 FILLER_6_197
*922 FILLER_6_202
*923 FILLER_6_222
*924 FILLER_6_230
*925 FILLER_6_27
*926 FILLER_6_29
*927 FILLER_6_3
*928 FILLER_6_41
*929 FILLER_6_53
*930 FILLER_6_65
*931 FILLER_6_77
*932 FILLER_6_83
*933 FILLER_6_85
*934 FILLER_6_97
*935 FILLER_7_105
*936 FILLER_7_111
*937 FILLER_7_113
*938 FILLER_7_125
*939 FILLER_7_137
*940 FILLER_7_149
*941 FILLER_7_15
*942 FILLER_7_161
*943 FILLER_7_167
*944 FILLER_7_169
*945 FILLER_7_181
*946 FILLER_7_193
*947 FILLER_7_205
*948 FILLER_7_214
*949 FILLER_7_222
*950 FILLER_7_225
*951 FILLER_7_27
*952 FILLER_7_3
*953 FILLER_7_39
*954 FILLER_7_51
*955 FILLER_7_55
*956 FILLER_7_57
*957 FILLER_7_69
*958 FILLER_7_81
*959 FILLER_7_93
*960 FILLER_8_109
*961 FILLER_8_121
*962 FILLER_8_133
*963 FILLER_8_139
*964 FILLER_8_141
*965 FILLER_8_15
*966 FILLER_8_153
*967 FILLER_8_165
*968 FILLER_8_177
*969 FILLER_8_189
*970 FILLER_8_195
*971 FILLER_8_197
*972 FILLER_8_209
*973 FILLER_8_221
*974 FILLER_8_27
*975 FILLER_8_29
*976 FILLER_8_3
*977 FILLER_8_41
*978 FILLER_8_53
*979 FILLER_8_65
*980 FILLER_8_77
*981 FILLER_8_83
*982 FILLER_8_85
*983 FILLER_8_97
*984 FILLER_9_105
*985 FILLER_9_111
*986 FILLER_9_113
*987 FILLER_9_125
*988 FILLER_9_137
*989 FILLER_9_149
*990 FILLER_9_15
*991 FILLER_9_161
*992 FILLER_9_167
*993 FILLER_9_169
*994 FILLER_9_181
*995 FILLER_9_193
*996 FILLER_9_205
*997 FILLER_9_217
*998 FILLER_9_223
*999 FILLER_9_225
*1000 FILLER_9_27
*1001 FILLER_9_3
*1002 FILLER_9_39
*1003 FILLER_9_51
*1004 FILLER_9_55
*1005 FILLER_9_57
*1006 FILLER_9_69
*1007 FILLER_9_81
*1008 FILLER_9_93
*1009 PHY_0
*1010 PHY_1
*1011 PHY_10
*1012 PHY_11
*1013 PHY_12
*1014 PHY_13
*1015 PHY_14
*1016 PHY_15
*1017 PHY_16
*1018 PHY_17
*1019 PHY_18
*1020 PHY_19
*1021 PHY_2
*1022 PHY_20
*1023 PHY_21
*1024 PHY_22
*1025 PHY_23
*1026 PHY_24
*1027 PHY_25
*1028 PHY_26
*1029 PHY_27
*1030 PHY_28
*1031 PHY_29
*1032 PHY_3
*1033 PHY_30
*1034 PHY_31
*1035 PHY_32
*1036 PHY_33
*1037 PHY_34
*1038 PHY_35
*1039 PHY_36
*1040 PHY_37
*1041 PHY_38
*1042 PHY_39
*1043 PHY_4
*1044 PHY_40
*1045 PHY_41
*1046 PHY_42
*1047 PHY_43
*1048 PHY_44
*1049 PHY_45
*1050 PHY_46
*1051 PHY_47
*1052 PHY_48
*1053 PHY_49
*1054 PHY_5
*1055 PHY_50
*1056 PHY_51
*1057 PHY_52
*1058 PHY_53
*1059 PHY_54
*1060 PHY_55
*1061 PHY_56
*1062 PHY_57
*1063 PHY_58
*1064 PHY_59
*1065 PHY_6
*1066 PHY_60
*1067 PHY_61
*1068 PHY_62
*1069 PHY_63
*1070 PHY_64
*1071 PHY_65
*1072 PHY_66
*1073 PHY_67
*1074 PHY_68
*1075 PHY_69
*1076 PHY_7
*1077 PHY_70
*1078 PHY_71
*1079 PHY_8
*1080 PHY_9
*1081 TAP_100
*1082 TAP_101
*1083 TAP_102
*1084 TAP_103
*1085 TAP_104
*1086 TAP_105
*1087 TAP_106
*1088 TAP_107
*1089 TAP_108
*1090 TAP_109
*1091 TAP_110
*1092 TAP_111
*1093 TAP_112
*1094 TAP_113
*1095 TAP_114
*1096 TAP_115
*1097 TAP_116
*1098 TAP_117
*1099 TAP_118
*1100 TAP_119
*1101 TAP_120
*1102 TAP_121
*1103 TAP_122
*1104 TAP_123
*1105 TAP_124
*1106 TAP_125
*1107 TAP_126
*1108 TAP_127
*1109 TAP_128
*1110 TAP_129
*1111 TAP_130
*1112 TAP_131
*1113 TAP_132
*1114 TAP_133
*1115 TAP_134
*1116 TAP_135
*1117 TAP_136
*1118 TAP_137
*1119 TAP_138
*1120 TAP_139
*1121 TAP_140
*1122 TAP_141
*1123 TAP_142
*1124 TAP_143
*1125 TAP_144
*1126 TAP_145
*1127 TAP_146
*1128 TAP_147
*1129 TAP_148
*1130 TAP_149
*1131 TAP_150
*1132 TAP_151
*1133 TAP_152
*1134 TAP_153
*1135 TAP_154
*1136 TAP_155
*1137 TAP_156
*1138 TAP_157
*1139 TAP_158
*1140 TAP_159
*1141 TAP_160
*1142 TAP_161
*1143 TAP_162
*1144 TAP_163
*1145 TAP_164
*1146 TAP_165
*1147 TAP_166
*1148 TAP_167
*1149 TAP_168
*1150 TAP_169
*1151 TAP_170
*1152 TAP_171
*1153 TAP_172
*1154 TAP_173
*1155 TAP_174
*1156 TAP_175
*1157 TAP_176
*1158 TAP_177
*1159 TAP_178
*1160 TAP_179
*1161 TAP_180
*1162 TAP_181
*1163 TAP_182
*1164 TAP_183
*1165 TAP_184
*1166 TAP_185
*1167 TAP_186
*1168 TAP_187
*1169 TAP_188
*1170 TAP_189
*1171 TAP_190
*1172 TAP_191
*1173 TAP_192
*1174 TAP_193
*1175 TAP_194
*1176 TAP_195
*1177 TAP_196
*1178 TAP_197
*1179 TAP_198
*1180 TAP_199
*1181 TAP_200
*1182 TAP_201
*1183 TAP_202
*1184 TAP_203
*1185 TAP_204
*1186 TAP_205
*1187 TAP_206
*1188 TAP_207
*1189 TAP_208
*1190 TAP_209
*1191 TAP_210
*1192 TAP_211
*1193 TAP_212
*1194 TAP_213
*1195 TAP_214
*1196 TAP_215
*1197 TAP_216
*1198 TAP_217
*1199 TAP_218
*1200 TAP_219
*1201 TAP_220
*1202 TAP_221
*1203 TAP_222
*1204 TAP_223
*1205 TAP_72
*1206 TAP_73
*1207 TAP_74
*1208 TAP_75
*1209 TAP_76
*1210 TAP_77
*1211 TAP_78
*1212 TAP_79
*1213 TAP_80
*1214 TAP_81
*1215 TAP_82
*1216 TAP_83
*1217 TAP_84
*1218 TAP_85
*1219 TAP_86
*1220 TAP_87
*1221 TAP_88
*1222 TAP_89
*1223 TAP_90
*1224 TAP_91
*1225 TAP_92
*1226 TAP_93
*1227 TAP_94
*1228 TAP_95
*1229 TAP_96
*1230 TAP_97
*1231 TAP_98
*1232 TAP_99
*1233 _34_
*1234 _35_
*1235 _36_
*1236 _37_
*1237 _38_
*1238 _39_
*1239 _40_
*1240 _41_
*1241 _42_
*1242 _43_
*1243 _44_
*1244 _45_
*1245 _46_
*1246 _47_
*1247 _48_
*1248 _49_
*1249 _50_
*1250 _51_
*1251 _52_
*1252 _53_
*1253 _54_
*1254 _55_
*1255 _56__1
*1256 _57__2
*1257 _58__3
*1258 _59__4
*1259 _60_
*1260 _61_
*1261 _62_
*1262 _63_
*1263 _64_
*1264 _65_
*1265 _66_
*1266 _67_
*1267 _68_
*1268 _69_
*1269 _70_
*1270 _70__13
*1271 _71_
*1272 _72_
*1273 _73_
*1274 _74_
*1275 _75_
*1276 _76_
*1277 _77_
*1278 _78_
*1279 _79_
*1280 _81_
*1281 clkbuf_0_reg_clk
*1282 clkbuf_1_0__f_reg_clk
*1283 clkbuf_1_1__f_reg_clk
*1284 input1
*1285 input2
*1286 input3
*1287 input4
*1288 output10
*1289 output11
*1290 output12
*1291 output5
*1292 output6
*1293 output7
*1294 output8
*1295 output9

*PORTS
reg_addr[0] I
reg_addr[1] I
reg_addr[2] I
reg_bus I
reg_clk I
reg_data[0] O
reg_data[1] O
reg_data[2] O
reg_data[3] O
reg_data[4] O
reg_data[5] O
reg_data[6] O
reg_data[7] O
reg_dir I

*D_NET *1 0.00149488
*CONN
*P reg_addr[0] I
*I *84:DIODE I *D sky130_fd_sc_hd__diode_2
*I *1284:A I *D sky130_fd_sc_hd__clkbuf_1
*CAP
1 reg_addr[0] 0.00046885
2 *84:DIODE 6.56456e-05
3 *1284:A 0
4 *1:8 0.000534496
5 *84:DIODE *50:8 0.000121487
6 *84:DIODE *61:10 0.00016549
7 *1:8 *61:10 0.000138915
*RES
1 reg_addr[0] *1:8 10.475 
2 *1:8 *1284:A 1.6 
3 *1:8 *84:DIODE 4.12 
*END

*D_NET *2 0.00122975
*CONN
*P reg_addr[1] I
*I *85:DIODE I *D sky130_fd_sc_hd__diode_2
*I *1285:A I *D sky130_fd_sc_hd__clkbuf_1
*CAP
1 reg_addr[1] 0.000377701
2 *85:DIODE 4.49419e-05
3 *1285:A 0
4 *2:8 0.000422643
5 *85:DIODE *50:8 0.000161204
6 *85:DIODE *61:10 0.000168213
7 *2:8 *50:8 2.75229e-05
8 *2:8 *61:10 2.75229e-05
*RES
1 reg_addr[1] *2:8 8.75 
2 *2:8 *1285:A 1.6 
3 *2:8 *85:DIODE 4.12 
*END

*D_NET *3 0.00128512
*CONN
*P reg_addr[2] I
*I *86:DIODE I *D sky130_fd_sc_hd__diode_2
*I *1286:A I *D sky130_fd_sc_hd__clkbuf_1
*CAP
1 reg_addr[2] 0.00044888
2 *86:DIODE 0.00015674
3 *1286:A 0
4 *3:8 0.00060562
5 *86:DIODE *60:10 1.9872e-05
6 *3:8 *50:8 5.4003e-05
*RES
1 reg_addr[2] *3:8 9.785 
2 *3:8 *1286:A 1.6 
3 *3:8 *86:DIODE 4.12 
*END

*D_NET *4 0.0167186
*CONN
*P reg_bus I
*I *1278:D I *D sky130_fd_sc_hd__dlxtn_1
*I *1274:D I *D sky130_fd_sc_hd__dlxtn_1
*I *78:DIODE I *D sky130_fd_sc_hd__diode_2
*I *76:DIODE I *D sky130_fd_sc_hd__diode_2
*I *77:DIODE I *D sky130_fd_sc_hd__diode_2
*I *1277:D I *D sky130_fd_sc_hd__dlxtn_1
*I *81:DIODE I *D sky130_fd_sc_hd__diode_2
*I *80:DIODE I *D sky130_fd_sc_hd__diode_2
*I *1275:D I *D sky130_fd_sc_hd__dlxtn_1
*I *79:DIODE I *D sky130_fd_sc_hd__diode_2
*I *1276:D I *D sky130_fd_sc_hd__dlxtn_1
*I *1273:D I *D sky130_fd_sc_hd__dlxtn_1
*I *1272:D I *D sky130_fd_sc_hd__dlxtn_1
*I *1271:D I *D sky130_fd_sc_hd__dlxtn_1
*I *75:DIODE I *D sky130_fd_sc_hd__diode_2
*I *82:DIODE I *D sky130_fd_sc_hd__diode_2
*I *1280:Z O *D sky130_fd_sc_hd__ebufn_8
*CAP
1 reg_bus 0.000619658
2 *1278:D 0.000354445
3 *1274:D 0
4 *78:DIODE 0.000148084
5 *76:DIODE 0
6 *77:DIODE 0.000132936
7 *1277:D 0.000241456
8 *81:DIODE 0
9 *80:DIODE 0
10 *1275:D 0.000257026
11 *79:DIODE 0
12 *1276:D 5.69225e-05
13 *1273:D 0
14 *1272:D 9.5562e-05
15 *1271:D 0
16 *75:DIODE 0
17 *82:DIODE 0.000323397
18 *1280:Z 0
19 *4:133 0.000662537
20 *4:121 0.000267105
21 *4:98 0.000393661
22 *4:92 0.000345738
23 *4:76 0.000361678
24 *4:67 0.000287463
25 *4:64 0.000390225
26 *4:55 0.000268702
27 *4:51 0.000371665
28 *4:40 0.000245995
29 *4:36 0.000268159
30 *4:33 0.000453622
31 *4:15 0.000619333
32 *4:9 0.0023062
33 *4:4 0.00252392
34 reg_bus *1280:TE_B 0.000348916
35 reg_bus *34:12 0.000203068
36 reg_bus *49:11 0.000104309
37 *77:DIODE *1248:B 0.00011577
38 *78:DIODE *38:15 0.000145184
39 *82:DIODE *1274:GATE_N 0.000121437
40 *82:DIODE *30:15 0.000727971
41 *1272:D *63:15 0.000233557
42 *1277:D *1277:GATE_N 0.000201508
43 *4:9 *73:DIODE 0
44 *4:9 *34:12 0
45 *4:9 *35:18 0.000208484
46 *4:9 *63:34 0
47 *4:9 *64:9 0.000178504
48 *4:15 *1251:A 0.000135002
49 *4:15 *1271:GATE_N 4.05127e-05
50 *4:15 *30:15 1.46744e-05
51 *4:15 *62:11 0.000310774
52 *4:36 *1251:A 3.30314e-05
53 *4:36 *63:34 0.000106494
54 *4:40 *1251:A 3.61137e-05
55 *4:40 *1275:GATE_N 0.000141599
56 *4:40 *38:24 0.000209179
57 *4:40 *63:34 2.05583e-05
58 *4:51 *1275:GATE_N 0.000103592
59 *4:51 *38:24 0.000112123
60 *4:55 *1248:A 5.83121e-06
61 *4:55 *1248:B 5.83121e-06
62 *4:55 *1252:B 2.03356e-05
63 *4:55 *1275:GATE_N 0.000242812
64 *4:55 *1276:GATE_N 0
65 *4:55 *64:9 0
66 *4:64 *1275:GATE_N 0.00013629
67 *4:64 *1276:GATE_N 0
68 *4:76 *1276:GATE_N 0
69 *4:121 *1251:B 5.83121e-06
70 *4:121 *38:15 8.69098e-05
71 *4:121 *63:34 1.88904e-05
72 *4:133 *62:35 0.000205363
73 *4:133 *65:8 0.00011964
74 *4:133 *65:29 2.30292e-05
*RES
1 *1280:Z *4:4 1.6 
2 *4:4 *4:9 37.045 
3 *4:9 *4:15 8.845 
4 *4:15 *82:DIODE 8.62 
5 *4:15 *75:DIODE 1.6 
6 *4:9 *1271:D 1.6 
7 *4:9 *4:33 1.485 
8 *4:33 *4:36 3.2525 
9 *4:36 *4:40 3.4875 
10 *4:40 *1272:D 5.775 
11 *4:40 *4:51 3.38 
12 *4:51 *4:55 5.705 
13 *4:55 *1273:D 3.6 
14 *4:55 *4:64 3.635 
15 *4:64 *4:67 1.845 
16 *4:67 *1276:D 2.395 
17 *4:67 *4:76 3.635 
18 *4:76 *79:DIODE 3.6 
19 *4:76 *1275:D 7.335 
20 *4:64 *4:92 2.52 
21 *4:92 *80:DIODE 1.6 
22 *4:92 *4:98 2.175 
23 *4:98 *81:DIODE 1.6 
24 *4:98 *1277:D 5.515 
25 *4:51 *77:DIODE 3.43 
26 *4:36 *4:121 3.7175 
27 *4:121 *76:DIODE 1.6 
28 *4:121 *78:DIODE 3.775 
29 *4:33 *4:133 6.315 
30 *4:133 *1274:D 1.6 
31 *4:133 *1278:D 6.22 
32 *4:4 reg_bus 15.335 
*END

*D_NET *5 0.00169481
*CONN
*P reg_clk I
*I *1281:A I *D sky130_fd_sc_hd__clkbuf_16
*I *83:DIODE I *D sky130_fd_sc_hd__diode_2
*CAP
1 reg_clk 0.000487684
2 *1281:A 0.000154619
3 *83:DIODE 4.43379e-05
4 *5:9 0.000686641
5 *1281:A *48:8 0.000203002
6 *5:9 *48:8 0.000118527
*RES
1 reg_clk *5:9 9.075 
2 *5:9 *83:DIODE 4.05 
3 *5:9 *1281:A 6.795 
*END

*D_NET *6 0.000799867
*CONN
*P reg_data[0] O
*I *1291:X O *D sky130_fd_sc_hd__buf_2
*CAP
1 reg_data[0] 0.000399934
2 *1291:X 0.000399934
*RES
1 *1291:X reg_data[0] 10.695 
*END

*D_NET *7 0.000799867
*CONN
*P reg_data[1] O
*I *1292:X O *D sky130_fd_sc_hd__buf_2
*CAP
1 reg_data[1] 0.000399934
2 *1292:X 0.000399934
*RES
1 *1292:X reg_data[1] 10.695 
*END

*D_NET *8 0.000799867
*CONN
*P reg_data[2] O
*I *1293:X O *D sky130_fd_sc_hd__buf_2
*CAP
1 reg_data[2] 0.000399934
2 *1293:X 0.000399934
*RES
1 *1293:X reg_data[2] 10.695 
*END

*D_NET *9 0.000799867
*CONN
*P reg_data[3] O
*I *1294:X O *D sky130_fd_sc_hd__buf_2
*CAP
1 reg_data[3] 0.000399934
2 *1294:X 0.000399934
*RES
1 *1294:X reg_data[3] 10.695 
*END

*D_NET *10 0.00128281
*CONN
*P reg_data[4] O
*I *1295:X O *D sky130_fd_sc_hd__buf_2
*CAP
1 reg_data[4] 0.000625691
2 *1295:X 0.000625691
3 reg_data[4] *65:30 3.14236e-05
*RES
1 *1295:X reg_data[4] 13.56 
*END

*D_NET *11 0.0010951
*CONN
*P reg_data[5] O
*I *1288:X O *D sky130_fd_sc_hd__buf_2
*CAP
1 reg_data[5] 0.000512719
2 *1288:X 0.000512719
3 reg_data[5] *1295:A 6.96579e-05
*RES
1 *1288:X reg_data[5] 12.18 
*END

*D_NET *12 0.000799867
*CONN
*P reg_data[6] O
*I *1289:X O *D sky130_fd_sc_hd__buf_2
*CAP
1 reg_data[6] 0.000399934
2 *1289:X 0.000399934
*RES
1 *1289:X reg_data[6] 10.695 
*END

*D_NET *13 0.000761861
*CONN
*P reg_data[7] O
*I *1290:X O *D sky130_fd_sc_hd__buf_2
*CAP
1 reg_data[7] 0.000380931
2 *1290:X 0.000380931
*RES
1 *1290:X reg_data[7] 10.35 
*END

*D_NET *14 0.00115232
*CONN
*P reg_dir I
*I *87:DIODE I *D sky130_fd_sc_hd__diode_2
*I *1287:A I *D sky130_fd_sc_hd__clkbuf_1
*CAP
1 reg_dir 0.000393118
2 *87:DIODE 0.000121965
3 *1287:A 0
4 *14:8 0.000515082
5 *87:DIODE *61:10 0.000122155
*RES
1 reg_dir *14:8 8.75 
2 *14:8 *1287:A 1.6 
3 *14:8 *87:DIODE 4.12 
*END

*D_NET *17 0.000358715
*CONN
*I *1271:GATE_N I *D sky130_fd_sc_hd__dlxtn_1
*I *1244:Y O *D sky130_fd_sc_hd__nand2_1
*CAP
1 *1271:GATE_N 7.68294e-05
2 *1244:Y 7.68294e-05
3 *1271:GATE_N *35:18 0.000115614
4 *1271:GATE_N *62:11 4.89295e-05
5 *4:15 *1271:GATE_N 4.05127e-05
*RES
1 *1244:Y *1271:GATE_N 9.03 
*END

*D_NET *18 0.000391412
*CONN
*I *1272:GATE_N I *D sky130_fd_sc_hd__dlxtn_1
*I *1246:Y O *D sky130_fd_sc_hd__nand2_1
*CAP
1 *1272:GATE_N 6.7165e-05
2 *1246:Y 6.7165e-05
3 *1272:GATE_N *1246:B 0.000136895
4 *1272:GATE_N *64:9 0.000120186
*RES
1 *1246:Y *1272:GATE_N 9.03 
*END

*D_NET *19 0.000456114
*CONN
*I *1273:GATE_N I *D sky130_fd_sc_hd__dlxtn_1
*I *1248:Y O *D sky130_fd_sc_hd__nand2_1
*CAP
1 *1273:GATE_N 0.000102398
2 *1248:Y 0.000102398
3 *1273:GATE_N *1252:B 4.80285e-05
4 *1273:GATE_N *1253:B 0.000116158
5 *1273:GATE_N *1259:A2 5.4003e-05
6 *1273:GATE_N *1275:GATE_N 3.31282e-05
*RES
1 *1248:Y *1273:GATE_N 9.375 
*END

*D_NET *20 0.000535865
*CONN
*I *1274:GATE_N I *D sky130_fd_sc_hd__dlxtn_1
*I *1249:Y O *D sky130_fd_sc_hd__nand2_1
*CAP
1 *1274:GATE_N 0.000147954
2 *1249:Y 0.000147954
3 *1274:GATE_N *38:13 0.00011852