*SPEF "ieee 1481-1999"
*DESIGN "spi_register"
*DATE "11:11:11 Fri 11 11, 1111"
*VENDOR "OpenRCX"
*PROGRAM "Parallel Extraction"
*VERSION "1.0"
*DESIGN_FLOW "NAME_SCOPE LOCAL" "PIN_CAP NONE"
*DIVIDER /
*DELIMITER :
*BUS_DELIMITER []
*T_UNIT 1 NS
*C_UNIT 1 PF
*R_UNIT 1 OHM
*L_UNIT 1 HENRY

*NAME_MAP
*1 reg_addr[0]
*2 reg_addr[1]
*3 reg_addr[2]
*4 reg_bus
*5 reg_clk
*6 reg_data[0]
*7 reg_data[1]
*8 reg_data[2]
*9 reg_data[3]
*10 reg_data[4]
*11 reg_data[5]
*12 reg_data[6]
*13 reg_data[7]
*14 reg_dir
*17 _00_
*18 _01_
*19 _02_
*20 _03_
*21 _04_
*22 _05_
*23 _06_
*24 _07_
*25 _12_
*26 _13_
*27 _14_
*28 _16_
*29 _17_
*30 _18_
*31 _19_
*32 _20_
*33 _21_
*34 _22_
*35 _23_
*36 _24_
*37 _25_
*38 _26_
*39 _27_
*40 _28_
*41 _29_
*42 _30_
*43 _31_
*44 _32_
*45 _33_
*46 clknet_0_reg_clk
*47 clknet_1_0__leaf_reg_clk
*48 clknet_1_1__leaf_reg_clk
*49 data_t
*50 net1
*51 net10
*52 net11
*53 net12
*54 net13
*55 net14
*56 net15
*57 net16
*58 net17
*59 net2
*60 net3
*61 net4
*62 net5
*63 net6
*64 net7
*65 net8
*66 net9
*67 t\[0\]
*68 t\[1\]
*69 t\[2\]
*70 t\[3\]
*71 ANTENNA__62__A0
*72 ANTENNA__62__A1
*73 ANTENNA__62__A2
*74 ANTENNA__62__A3
*75 ANTENNA_clkbuf_0_reg_clk_A
*76 ANTENNA_input1_A
*77 ANTENNA_input2_A
*78 ANTENNA_input3_A
*79 ANTENNA_input4_A
*80 ANTENNA_output5_A
*81 ANTENNA_output6_A
*82 ANTENNA_output7_A
*83 ANTENNA_output8_A
*84 FILLER_0_100
*85 FILLER_0_106
*86 FILLER_0_113
*87 FILLER_0_125
*88 FILLER_0_137
*89 FILLER_0_14
*90 FILLER_0_141
*91 FILLER_0_146
*92 FILLER_0_152
*93 FILLER_0_164
*94 FILLER_0_169
*95 FILLER_0_177
*96 FILLER_0_194
*97 FILLER_0_197
*98 FILLER_0_20
*99 FILLER_0_201
*100 FILLER_0_222
*101 FILLER_0_225
*102 FILLER_0_230
*103 FILLER_0_29
*104 FILLER_0_3
*105 FILLER_0_41
*106 FILLER_0_53
*107 FILLER_0_57
*108 FILLER_0_62
*109 FILLER_0_68
*110 FILLER_0_80
*111 FILLER_0_85
*112 FILLER_10_109
*113 FILLER_10_121
*114 FILLER_10_133
*115 FILLER_10_139
*116 FILLER_10_141
*117 FILLER_10_15
*118 FILLER_10_153
*119 FILLER_10_165
*120 FILLER_10_177
*121 FILLER_10_183
*122 FILLER_10_194
*123 FILLER_10_197
*124 FILLER_10_204
*125 FILLER_10_216
*126 FILLER_10_228
*127 FILLER_10_232
*128 FILLER_10_27
*129 FILLER_10_29
*130 FILLER_10_3
*131 FILLER_10_41
*132 FILLER_10_53
*133 FILLER_10_65
*134 FILLER_10_77
*135 FILLER_10_83
*136 FILLER_10_85
*137 FILLER_10_97
*138 FILLER_11_105
*139 FILLER_11_111
*140 FILLER_11_113
*141 FILLER_11_125
*142 FILLER_11_137
*143 FILLER_11_149
*144 FILLER_11_15
*145 FILLER_11_161
*146 FILLER_11_167
*147 FILLER_11_169
*148 FILLER_11_181
*149 FILLER_11_189
*150 FILLER_11_197
*151 FILLER_11_205
*152 FILLER_11_212
*153 FILLER_11_222
*154 FILLER_11_225
*155 FILLER_11_231
*156 FILLER_11_27
*157 FILLER_11_3
*158 FILLER_11_39
*159 FILLER_11_51
*160 FILLER_11_55
*161 FILLER_11_57
*162 FILLER_11_69
*163 FILLER_11_81
*164 FILLER_11_93
*165 FILLER_12_109
*166 FILLER_12_121
*167 FILLER_12_133
*168 FILLER_12_139
*169 FILLER_12_141
*170 FILLER_12_15
*171 FILLER_12_153
*172 FILLER_12_165
*173 FILLER_12_177
*174 FILLER_12_189
*175 FILLER_12_195
*176 FILLER_12_197
*177 FILLER_12_209
*178 FILLER_12_221
*179 FILLER_12_27
*180 FILLER_12_29
*181 FILLER_12_3
*182 FILLER_12_41
*183 FILLER_12_53
*184 FILLER_12_65
*185 FILLER_12_77
*186 FILLER_12_83
*187 FILLER_12_85
*188 FILLER_12_97
*189 FILLER_13_105
*190 FILLER_13_111
*191 FILLER_13_113
*192 FILLER_13_125
*193 FILLER_13_137
*194 FILLER_13_149
*195 FILLER_13_15
*196 FILLER_13_161
*197 FILLER_13_167
*198 FILLER_13_169
*199 FILLER_13_181
*200 FILLER_13_187
*201 FILLER_13_194
*202 FILLER_13_201
*203 FILLER_13_207
*204 FILLER_13_215
*205 FILLER_13_219
*206 FILLER_13_223
*207 FILLER_13_225
*208 FILLER_13_27
*209 FILLER_13_3
*210 FILLER_13_39
*211 FILLER_13_51
*212 FILLER_13_55
*213 FILLER_13_57
*214 FILLER_13_69
*215 FILLER_13_81
*216 FILLER_13_93
*217 FILLER_14_109
*218 FILLER_14_121
*219 FILLER_14_133
*220 FILLER_14_139
*221 FILLER_14_141
*222 FILLER_14_15
*223 FILLER_14_153
*224 FILLER_14_165
*225 FILLER_14_169
*226 FILLER_14_194
*227 FILLER_14_197
*228 FILLER_14_211
*229 FILLER_14_229
*230 FILLER_14_27
*231 FILLER_14_29
*232 FILLER_14_3
*233 FILLER_14_41
*234 FILLER_14_53
*235 FILLER_14_65
*236 FILLER_14_77
*237 FILLER_14_83
*238 FILLER_14_85
*239 FILLER_14_97
*240 FILLER_15_105
*241 FILLER_15_111
*242 FILLER_15_113
*243 FILLER_15_125
*244 FILLER_15_137
*245 FILLER_15_149
*246 FILLER_15_15
*247 FILLER_15_161
*248 FILLER_15_167
*249 FILLER_15_169
*250 FILLER_15_183
*251 FILLER_15_189
*252 FILLER_15_202
*253 FILLER_15_208
*254 FILLER_15_221
*255 FILLER_15_225
*256 FILLER_15_27
*257 FILLER_15_3
*258 FILLER_15_39
*259 FILLER_15_51
*260 FILLER_15_55
*261 FILLER_15_57
*262 FILLER_15_69
*263 FILLER_15_81
*264 FILLER_15_93
*265 FILLER_16_109
*266 FILLER_16_121
*267 FILLER_16_133
*268 FILLER_16_139
*269 FILLER_16_141
*270 FILLER_16_15
*271 FILLER_16_153
*272 FILLER_16_165
*273 FILLER_16_173
*274 FILLER_16_177
*275 FILLER_16_184
*276 FILLER_16_197
*277 FILLER_16_209
*278 FILLER_16_221
*279 FILLER_16_27
*280 FILLER_16_29
*281 FILLER_16_3
*282 FILLER_16_41
*283 FILLER_16_53
*284 FILLER_16_65
*285 FILLER_16_77
*286 FILLER_16_83
*287 FILLER_16_85
*288 FILLER_16_97
*289 FILLER_17_105
*290 FILLER_17_111
*291 FILLER_17_113
*292 FILLER_17_125
*293 FILLER_17_137
*294 FILLER_17_149
*295 FILLER_17_15
*296 FILLER_17_161
*297 FILLER_17_167
*298 FILLER_17_169
*299 FILLER_17_184
*300 FILLER_17_194
*301 FILLER_17_206
*302 FILLER_17_218
*303 FILLER_17_225
*304 FILLER_17_27
*305 FILLER_17_3
*306 FILLER_17_39
*307 FILLER_17_51
*308 FILLER_17_55
*309 FILLER_17_57
*310 FILLER_17_69
*311 FILLER_17_81
*312 FILLER_17_93
*313 FILLER_18_109
*314 FILLER_18_121
*315 FILLER_18_133
*316 FILLER_18_139
*317 FILLER_18_141
*318 FILLER_18_15
*319 FILLER_18_153
*320 FILLER_18_159
*321 FILLER_18_175
*322 FILLER_18_187
*323 FILLER_18_194
*324 FILLER_18_197
*325 FILLER_18_211
*326 FILLER_18_223
*327 FILLER_18_231
*328 FILLER_18_27
*329 FILLER_18_29
*330 FILLER_18_3
*331 FILLER_18_41
*332 FILLER_18_53
*333 FILLER_18_65
*334 FILLER_18_77
*335 FILLER_18_83
*336 FILLER_18_85
*337 FILLER_18_97
*338 FILLER_19_105
*339 FILLER_19_111
*340 FILLER_19_113
*341 FILLER_19_125
*342 FILLER_19_137
*343 FILLER_19_149
*344 FILLER_19_15
*345 FILLER_19_161
*346 FILLER_19_166
*347 FILLER_19_169
*348 FILLER_19_174
*349 FILLER_19_182
*350 FILLER_19_206
*351 FILLER_19_218
*352 FILLER_19_225
*353 FILLER_19_27
*354 FILLER_19_3
*355 FILLER_19_39
*356 FILLER_19_51
*357 FILLER_19_55
*358 FILLER_19_57
*359 FILLER_19_69
*360 FILLER_19_81
*361 FILLER_19_93
*362 FILLER_1_105
*363 FILLER_1_111
*364 FILLER_1_113
*365 FILLER_1_125
*366 FILLER_1_137
*367 FILLER_1_147
*368 FILLER_1_15
*369 FILLER_1_155
*370 FILLER_1_160
*371 FILLER_1_169
*372 FILLER_1_174
*373 FILLER_1_203
*374 FILLER_1_215
*375 FILLER_1_223
*376 FILLER_1_225
*377 FILLER_1_230
*378 FILLER_1_27
*379 FILLER_1_3
*380 FILLER_1_39
*381 FILLER_1_51
*382 FILLER_1_55
*383 FILLER_1_57
*384 FILLER_1_69
*385 FILLER_1_81
*386 FILLER_1_93
*387 FILLER_20_109
*388 FILLER_20_121
*389 FILLER_20_133
*390 FILLER_20_139
*391 FILLER_20_141
*392 FILLER_20_15
*393 FILLER_20_153
*394 FILLER_20_165
*395 FILLER_20_181
*396 FILLER_20_192
*397 FILLER_20_197
*398 FILLER_20_209
*399 FILLER_20_221
*400 FILLER_20_27
*401 FILLER_20_29
*402 FILLER_20_3
*403 FILLER_20_41
*404 FILLER_20_53
*405 FILLER_20_65
*406 FILLER_20_77
*407 FILLER_20_83
*408 FILLER_20_85
*409 FILLER_20_97
*410 FILLER_21_105
*411 FILLER_21_111
*412 FILLER_21_113
*413 FILLER_21_125
*414 FILLER_21_137
*415 FILLER_21_149
*416 FILLER_21_15
*417 FILLER_21_161
*418 FILLER_21_167
*419 FILLER_21_169
*420 FILLER_21_183
*421 FILLER_21_195
*422 FILLER_21_207
*423 FILLER_21_219
*424 FILLER_21_223
*425 FILLER_21_225
*426 FILLER_21_27
*427 FILLER_21_3
*428 FILLER_21_39
*429 FILLER_21_51
*430 FILLER_21_55
*431 FILLER_21_57
*432 FILLER_21_69
*433 FILLER_21_81
*434 FILLER_21_93
*435 FILLER_22_109
*436 FILLER_22_121
*437 FILLER_22_133
*438 FILLER_22_139
*439 FILLER_22_141
*440 FILLER_22_15
*441 FILLER_22_153
*442 FILLER_22_165
*443 FILLER_22_177
*444 FILLER_22_189
*445 FILLER_22_195
*446 FILLER_22_197
*447 FILLER_22_209
*448 FILLER_22_221
*449 FILLER_22_27
*450 FILLER_22_29
*451 FILLER_22_3
*452 FILLER_22_41
*453 FILLER_22_53
*454 FILLER_22_65
*455 FILLER_22_77
*456 FILLER_22_83
*457 FILLER_22_85
*458 FILLER_22_97
*459 FILLER_23_105
*460 FILLER_23_111
*461 FILLER_23_113
*462 FILLER_23_125
*463 FILLER_23_137
*464 FILLER_23_149
*465 FILLER_23_15
*466 FILLER_23_161
*467 FILLER_23_167
*468 FILLER_23_169
*469 FILLER_23_181
*470 FILLER_23_193
*471 FILLER_23_205
*472 FILLER_23_217
*473 FILLER_23_223
*474 FILLER_23_225
*475 FILLER_23_27
*476 FILLER_23_3
*477 FILLER_23_39
*478 FILLER_23_51
*479 FILLER_23_55
*480 FILLER_23_57
*481 FILLER_23_69
*482 FILLER_23_81
*483 FILLER_23_93
*484 FILLER_24_109
*485 FILLER_24_121
*486 FILLER_24_133
*487 FILLER_24_139
*488 FILLER_24_141
*489 FILLER_24_15
*490 FILLER_24_153
*491 FILLER_24_165
*492 FILLER_24_177
*493 FILLER_24_189
*494 FILLER_24_195
*495 FILLER_24_197
*496 FILLER_24_209
*497 FILLER_24_221
*498 FILLER_24_27
*499 FILLER_24_29
*500 FILLER_24_3
*501 FILLER_24_41
*502 FILLER_24_53
*503 FILLER_24_65
*504 FILLER_24_77
*505 FILLER_24_83
*506 FILLER_24_85
*507 FILLER_24_97
*508 FILLER_25_105
*509 FILLER_25_111
*510 FILLER_25_113
*511 FILLER_25_125
*512 FILLER_25_137
*513 FILLER_25_149
*514 FILLER_25_15
*515 FILLER_25_161
*516 FILLER_25_167
*517 FILLER_25_169
*518 FILLER_25_181
*519 FILLER_25_193
*520 FILLER_25_205
*521 FILLER_25_217
*522 FILLER_25_223
*523 FILLER_25_225
*524 FILLER_25_27
*525 FILLER_25_3
*526 FILLER_25_39
*527 FILLER_25_51
*528 FILLER_25_55
*529 FILLER_25_57
*530 FILLER_25_69
*531 FILLER_25_81
*532 FILLER_25_93
*533 FILLER_26_109
*534 FILLER_26_121
*535 FILLER_26_133
*536 FILLER_26_139
*537 FILLER_26_141
*538 FILLER_26_15
*539 FILLER_26_153
*540 FILLER_26_165
*541 FILLER_26_177
*542 FILLER_26_189
*543 FILLER_26_195
*544 FILLER_26_197
*545 FILLER_26_209
*546 FILLER_26_221
*547 FILLER_26_27
*548 FILLER_26_29
*549 FILLER_26_3
*550 FILLER_26_41
*551 FILLER_26_53
*552 FILLER_26_65
*553 FILLER_26_77
*554 FILLER_26_83
*555 FILLER_26_85
*556 FILLER_26_97
*557 FILLER_27_105
*558 FILLER_27_111
*559 FILLER_27_113
*560 FILLER_27_125
*561 FILLER_27_137
*562 FILLER_27_149
*563 FILLER_27_15
*564 FILLER_27_161
*565 FILLER_27_167
*566 FILLER_27_169
*567 FILLER_27_181
*568 FILLER_27_193
*569 FILLER_27_205
*570 FILLER_27_217
*571 FILLER_27_223
*572 FILLER_27_225
*573 FILLER_27_27
*574 FILLER_27_3
*575 FILLER_27_39
*576 FILLER_27_51
*577 FILLER_27_55
*578 FILLER_27_57
*579 FILLER_27_69
*580 FILLER_27_81
*581 FILLER_27_93
*582 FILLER_28_109
*583 FILLER_28_121
*584 FILLER_28_133
*585 FILLER_28_139
*586 FILLER_28_141
*587 FILLER_28_15
*588 FILLER_28_153
*589 FILLER_28_165
*590 FILLER_28_177
*591 FILLER_28_189
*592 FILLER_28_195
*593 FILLER_28_197
*594 FILLER_28_209
*595 FILLER_28_221
*596 FILLER_28_27
*597 FILLER_28_29
*598 FILLER_28_3
*599 FILLER_28_41
*600 FILLER_28_53
*601 FILLER_28_65
*602 FILLER_28_77
*603 FILLER_28_83
*604 FILLER_28_85
*605 FILLER_28_97
*606 FILLER_29_105
*607 FILLER_29_111
*608 FILLER_29_113
*609 FILLER_29_125
*610 FILLER_29_137
*611 FILLER_29_149
*612 FILLER_29_15
*613 FILLER_29_161
*614 FILLER_29_167
*615 FILLER_29_169
*616 FILLER_29_181
*617 FILLER_29_193
*618 FILLER_29_205
*619 FILLER_29_217
*620 FILLER_29_223
*621 FILLER_29_225
*622 FILLER_29_27
*623 FILLER_29_3
*624 FILLER_29_39
*625 FILLER_29_51
*626 FILLER_29_55
*627 FILLER_29_57
*628 FILLER_29_69
*629 FILLER_29_81
*630 FILLER_29_93
*631 FILLER_2_109
*632 FILLER_2_121
*633 FILLER_2_133
*634 FILLER_2_139
*635 FILLER_2_141
*636 FILLER_2_15
*637 FILLER_2_153
*638 FILLER_2_165
*639 FILLER_2_177
*640 FILLER_2_188
*641 FILLER_2_197
*642 FILLER_2_209
*643 FILLER_2_231
*644 FILLER_2_27
*645 FILLER_2_29
*646 FILLER_2_3
*647 FILLER_2_41
*648 FILLER_2_53
*649 FILLER_2_65
*650 FILLER_2_77
*651 FILLER_2_83
*652 FILLER_2_85
*653 FILLER_2_97
*654 FILLER_30_109
*655 FILLER_30_121
*656 FILLER_30_133
*657 FILLER_30_139
*658 FILLER_30_141
*659 FILLER_30_15
*660 FILLER_30_153
*661 FILLER_30_165
*662 FILLER_30_177
*663 FILLER_30_189
*664 FILLER_30_195
*665 FILLER_30_197
*666 FILLER_30_209
*667 FILLER_30_221
*668 FILLER_30_27
*669 FILLER_30_29
*670 FILLER_30_3
*671 FILLER_30_41
*672 FILLER_30_53
*673 FILLER_30_65
*674 FILLER_30_77
*675 FILLER_30_83
*676 FILLER_30_85
*677 FILLER_30_97
*678 FILLER_31_105
*679 FILLER_31_111
*680 FILLER_31_113
*681 FILLER_31_125
*682 FILLER_31_137
*683 FILLER_31_149
*684 FILLER_31_15
*685 FILLER_31_161
*686 FILLER_31_167
*687 FILLER_31_169
*688 FILLER_31_181
*689 FILLER_31_193
*690 FILLER_31_205
*691 FILLER_31_217
*692 FILLER_31_223
*693 FILLER_31_225
*694 FILLER_31_27
*695 FILLER_31_3
*696 FILLER_31_39
*697 FILLER_31_51
*698 FILLER_31_55
*699 FILLER_31_57
*700 FILLER_31_69
*701 FILLER_31_81
*702 FILLER_31_93
*703 FILLER_32_109
*704 FILLER_32_121
*705 FILLER_32_133
*706 FILLER_32_139
*707 FILLER_32_141
*708 FILLER_32_15
*709 FILLER_32_153
*710 FILLER_32_165
*711 FILLER_32_177
*712 FILLER_32_189
*713 FILLER_32_195
*714 FILLER_32_197
*715 FILLER_32_209
*716 FILLER_32_221
*717 FILLER_32_27
*718 FILLER_32_29
*719 FILLER_32_3
*720 FILLER_32_41
*721 FILLER_32_53
*722 FILLER_32_65
*723 FILLER_32_77
*724 FILLER_32_83
*725 FILLER_32_85
*726 FILLER_32_97
*727 FILLER_33_105
*728 FILLER_33_111
*729 FILLER_33_113
*730 FILLER_33_125
*731 FILLER_33_137
*732 FILLER_33_149
*733 FILLER_33_15
*734 FILLER_33_161
*735 FILLER_33_167
*736 FILLER_33_169
*737 FILLER_33_181
*738 FILLER_33_193
*739 FILLER_33_205
*740 FILLER_33_217
*741 FILLER_33_223
*742 FILLER_33_225
*743 FILLER_33_27
*744 FILLER_33_3
*745 FILLER_33_39
*746 FILLER_33_51
*747 FILLER_33_55
*748 FILLER_33_57
*749 FILLER_33_69
*750 FILLER_33_81
*751 FILLER_33_93
*752 FILLER_34_109
*753 FILLER_34_121
*754 FILLER_34_133
*755 FILLER_34_139
*756 FILLER_34_141
*757 FILLER_34_15
*758 FILLER_34_153
*759 FILLER_34_165
*760 FILLER_34_177
*761 FILLER_34_189
*762 FILLER_34_195
*763 FILLER_34_197
*764 FILLER_34_209
*765 FILLER_34_221
*766 FILLER_34_27
*767 FILLER_34_29
*768 FILLER_34_3
*769 FILLER_34_41
*770 FILLER_34_53
*771 FILLER_34_65
*772 FILLER_34_77
*773 FILLER_34_83
*774 FILLER_34_85
*775 FILLER_34_97
*776 FILLER_35_107
*777 FILLER_35_11
*778 FILLER_35_111
*779 FILLER_35_113
*780 FILLER_35_117
*781 FILLER_35_129
*782 FILLER_35_137
*783 FILLER_35_141
*784 FILLER_35_147
*785 FILLER_35_159
*786 FILLER_35_167
*787 FILLER_35_169
*788 FILLER_35_17
*789 FILLER_35_175
*790 FILLER_35_187
*791 FILLER_35_195
*792 FILLER_35_197
*793 FILLER_35_203
*794 FILLER_35_215
*795 FILLER_35_223
*796 FILLER_35_225
*797 FILLER_35_231
*798 FILLER_35_25
*799 FILLER_35_29
*800 FILLER_35_3
*801 FILLER_35_37
*802 FILLER_35_43
*803 FILLER_35_49
*804 FILLER_35_55
*805 FILLER_35_57
*806 FILLER_35_69
*807 FILLER_35_75
*808 FILLER_35_81
*809 FILLER_35_85
*810 FILLER_35_97
*811 FILLER_3_105
*812 FILLER_3_111
*813 FILLER_3_113
*814 FILLER_3_125
*815 FILLER_3_137
*816 FILLER_3_149
*817 FILLER_3_15
*818 FILLER_3_161
*819 FILLER_3_167
*820 FILLER_3_169
*821 FILLER_3_181
*822 FILLER_3_193
*823 FILLER_3_197
*824 FILLER_3_201
*825 FILLER_3_222
*826 FILLER_3_225
*827 FILLER_3_230
*828 FILLER_3_27
*829 FILLER_3_3
*830 FILLER_3_39
*831 FILLER_3_51
*832 FILLER_3_55
*833 FILLER_3_57
*834 FILLER_3_69
*835 FILLER_3_81
*836 FILLER_3_93
*837 FILLER_4_109
*838 FILLER_4_121
*839 FILLER_4_133
*840 FILLER_4_139
*841 FILLER_4_141
*842 FILLER_4_15
*843 FILLER_4_153
*844 FILLER_4_165
*845 FILLER_4_177
*846 FILLER_4_185
*847 FILLER_4_194
*848 FILLER_4_197
*849 FILLER_4_202
*850 FILLER_4_206
*851 FILLER_4_224
*852 FILLER_4_228
*853 FILLER_4_231
*854 FILLER_4_27
*855 FILLER_4_29
*856 FILLER_4_3
*857 FILLER_4_41
*858 FILLER_4_53
*859 FILLER_4_65
*860 FILLER_4_77
*861 FILLER_4_83
*862 FILLER_4_85
*863 FILLER_4_97
*864 FILLER_5_105
*865 FILLER_5_111
*866 FILLER_5_113
*867 FILLER_5_125
*868 FILLER_5_137
*869 FILLER_5_149
*870 FILLER_5_15
*871 FILLER_5_161
*872 FILLER_5_167
*873 FILLER_5_169
*874 FILLER_5_181
*875 FILLER_5_185
*876 FILLER_5_206
*877 FILLER_5_210
*878 FILLER_5_214
*879 FILLER_5_222
*880 FILLER_5_225
*881 FILLER_5_27
*882 FILLER_5_3
*883 FILLER_5_39
*884 FILLER_5_51
*885 FILLER_5_55
*886 FILLER_5_57
*887 FILLER_5_69
*888 FILLER_5_81
*889 FILLER_5_93
*890 FILLER_6_109
*891 FILLER_6_121
*892 FILLER_6_133
*893 FILLER_6_139
*894 FILLER_6_141
*895 FILLER_6_15
*896 FILLER_6_153
*897 FILLER_6_165
*898 FILLER_6_177
*899 FILLER_6_189
*900 FILLER_6_195
*901 FILLER_6_197
*902 FILLER_6_205
*903 FILLER_6_222
*904 FILLER_6_230
*905 FILLER_6_27
*906 FILLER_6_29
*907 FILLER_6_3
*908 FILLER_6_41
*909 FILLER_6_53
*910 FILLER_6_65
*911 FILLER_6_77
*912 FILLER_6_83
*913 FILLER_6_85
*914 FILLER_6_97
*915 FILLER_7_105
*916 FILLER_7_111
*917 FILLER_7_113
*918 FILLER_7_125
*919 FILLER_7_137
*920 FILLER_7_149
*921 FILLER_7_15
*922 FILLER_7_161
*923 FILLER_7_167
*924 FILLER_7_169
*925 FILLER_7_181
*926 FILLER_7_193
*927 FILLER_7_205
*928 FILLER_7_222
*929 FILLER_7_225
*930 FILLER_7_27
*931 FILLER_7_3
*932 FILLER_7_39
*933 FILLER_7_51
*934 FILLER_7_55
*935 FILLER_7_57
*936 FILLER_7_69
*937 FILLER_7_81
*938 FILLER_7_93
*939 FILLER_8_109
*940 FILLER_8_121
*941 FILLER_8_133
*942 FILLER_8_139
*943 FILLER_8_141
*944 FILLER_8_15
*945 FILLER_8_153
*946 FILLER_8_165
*947 FILLER_8_177
*948 FILLER_8_189
*949 FILLER_8_195
*950 FILLER_8_197
*951 FILLER_8_209
*952 FILLER_8_221
*953 FILLER_8_27
*954 FILLER_8_29
*955 FILLER_8_3
*956 FILLER_8_41
*957 FILLER_8_53
*958 FILLER_8_65
*959 FILLER_8_77
*960 FILLER_8_83
*961 FILLER_8_85
*962 FILLER_8_97
*963 FILLER_9_105
*964 FILLER_9_111
*965 FILLER_9_113
*966 FILLER_9_125
*967 FILLER_9_137
*968 FILLER_9_149
*969 FILLER_9_15
*970 FILLER_9_161
*971 FILLER_9_167
*972 FILLER_9_169
*973 FILLER_9_181
*974 FILLER_9_185
*975 FILLER_9_194
*976 FILLER_9_206
*977 FILLER_9_218
*978 FILLER_9_225
*979 FILLER_9_27
*980 FILLER_9_3
*981 FILLER_9_39
*982 FILLER_9_51
*983 FILLER_9_55
*984 FILLER_9_57
*985 FILLER_9_69
*986 FILLER_9_81
*987 FILLER_9_93
*988 PHY_0
*989 PHY_1
*990 PHY_10
*991 PHY_11
*992 PHY_12
*993 PHY_13
*994 PHY_14
*995 PHY_15
*996 PHY_16
*997 PHY_17
*998 PHY_18
*999 PHY_19
*1000 PHY_2
*1001 PHY_20
*1002 PHY_21
*1003 PHY_22
*1004 PHY_23
*1005 PHY_24
*1006 PHY_25
*1007 PHY_26
*1008 PHY_27
*1009 PHY_28
*1010 PHY_29
*1011 PHY_3
*1012 PHY_30
*1013 PHY_31
*1014 PHY_32
*1015 PHY_33
*1016 PHY_34
*1017 PHY_35
*1018 PHY_36
*1019 PHY_37
*1020 PHY_38
*1021 PHY_39
*1022 PHY_4
*1023 PHY_40
*1024 PHY_41
*1025 PHY_42
*1026 PHY_43
*1027 PHY_44
*1028 PHY_45
*1029 PHY_46
*1030 PHY_47
*1031 PHY_48
*1032 PHY_49
*1033 PHY_5
*1034 PHY_50
*1035 PHY_51
*1036 PHY_52
*1037 PHY_53
*1038 PHY_54
*1039 PHY_55
*1040 PHY_56
*1041 PHY_57
*1042 PHY_58
*1043 PHY_59
*1044 PHY_6
*1045 PHY_60
*1046 PHY_61
*1047 PHY_62
*1048 PHY_63
*1049 PHY_64
*1050 PHY_65
*1051 PHY_66
*1052 PHY_67
*1053 PHY_68
*1054 PHY_69
*1055 PHY_7
*1056 PHY_70
*1057 PHY_71
*1058 PHY_8
*1059 PHY_9
*1060 TAP_100
*1061 TAP_101
*1062 TAP_102
*1063 TAP_103
*1064 TAP_104
*1065 TAP_105
*1066 TAP_106
*1067 TAP_107
*1068 TAP_108
*1069 TAP_109
*1070 TAP_110
*1071 TAP_111
*1072 TAP_112
*1073 TAP_113
*1074 TAP_114
*1075 TAP_115
*1076 TAP_116
*1077 TAP_117
*1078 TAP_118
*1079 TAP_119
*1080 TAP_120
*1081 TAP_121
*1082 TAP_122
*1083 TAP_123
*1084 TAP_124
*1085 TAP_125
*1086 TAP_126
*1087 TAP_127
*1088 TAP_128
*1089 TAP_129
*1090 TAP_130
*1091 TAP_131
*1092 TAP_132
*1093 TAP_133
*1094 TAP_134
*1095 TAP_135
*1096 TAP_136
*1097 TAP_137
*1098 TAP_138
*1099 TAP_139
*1100 TAP_140
*1101 TAP_141
*1102 TAP_142
*1103 TAP_143
*1104 TAP_144
*1105 TAP_145
*1106 TAP_146
*1107 TAP_147
*1108 TAP_148
*1109 TAP_149
*1110 TAP_150
*1111 TAP_151
*1112 TAP_152
*1113 TAP_153
*1114 TAP_154
*1115 TAP_155
*1116 TAP_156
*1117 TAP_157
*1118 TAP_158
*1119 TAP_159
*1120 TAP_160
*1121 TAP_161
*1122 TAP_162
*1123 TAP_163
*1124 TAP_164
*1125 TAP_165
*1126 TAP_166
*1127 TAP_167
*1128 TAP_168
*1129 TAP_169
*1130 TAP_170
*1131 TAP_171
*1132 TAP_172
*1133 TAP_173
*1134 TAP_174
*1135 TAP_175
*1136 TAP_176
*1137 TAP_177
*1138 TAP_178
*1139 TAP_179
*1140 TAP_180
*1141 TAP_181
*1142 TAP_182
*1143 TAP_183
*1144 TAP_184
*1145 TAP_185
*1146 TAP_186
*1147 TAP_187
*1148 TAP_188
*1149 TAP_189
*1150 TAP_190
*1151 TAP_191
*1152 TAP_192
*1153 TAP_193
*1154 TAP_194
*1155 TAP_195
*1156 TAP_196
*1157 TAP_197
*1158 TAP_198
*1159 TAP_199
*1160 TAP_200
*1161 TAP_201
*1162 TAP_202
*1163 TAP_203
*1164 TAP_204
*1165 TAP_205
*1166 TAP_206
*1167 TAP_207
*1168 TAP_208
*1169 TAP_209
*1170 TAP_210
*1171 TAP_211
*1172 TAP_212
*1173 TAP_213
*1174 TAP_214
*1175 TAP_215
*1176 TAP_216
*1177 TAP_217
*1178 TAP_218
*1179 TAP_219
*1180 TAP_220
*1181 TAP_221
*1182 TAP_222
*1183 TAP_223
*1184 TAP_72
*1185 TAP_73
*1186 TAP_74
*1187 TAP_75
*1188 TAP_76
*1189 TAP_77
*1190 TAP_78
*1191 TAP_79
*1192 TAP_80
*1193 TAP_81
*1194 TAP_82
*1195 TAP_83
*1196 TAP_84
*1197 TAP_85
*1198 TAP_86
*1199 TAP_87
*1200 TAP_88
*1201 TAP_89
*1202 TAP_90
*1203 TAP_91
*1204 TAP_92
*1205 TAP_93
*1206 TAP_94
*1207 TAP_95
*1208 TAP_96
*1209 TAP_97
*1210 TAP_98
*1211 TAP_99
*1212 _34_
*1213 _35_
*1214 _36_
*1215 _37_
*1216 _38_
*1217 _39_
*1218 _40_
*1219 _41_
*1220 _42_
*1221 _43_
*1222 _44_
*1223 _45_
*1224 _46_
*1225 _47_
*1226 _48_
*1227 _49_
*1228 _50_
*1229 _51_
*1230 _52_
*1231 _53_
*1232 _54_
*1233 _55_
*1234 _56__1
*1235 _57__2
*1236 _58__3
*1237 _59__4
*1238 _60_
*1239 _61_
*1240 _62_
*1241 _63_
*1242 _64_
*1243 _65_
*1244 _66_
*1245 _67_
*1246 _68_
*1247 _69_
*1248 _70_
*1249 _70__13
*1250 _71_
*1251 _72_
*1252 _73_
*1253 _74_
*1254 _75_
*1255 _76_
*1256 _77_
*1257 _78_
*1258 _79_
*1259 _81_
*1260 clkbuf_0_reg_clk
*1261 clkbuf_1_0__f_reg_clk
*1262 clkbuf_1_1__f_reg_clk
*1263 input1
*1264 input2
*1265 input3
*1266 input4
*1267 output10
*1268 output11
*1269 output12
*1270 output5
*1271 output6
*1272 output7
*1273 output8
*1274 output9

*PORTS
reg_addr[0] I
reg_addr[1] I
reg_addr[2] I
reg_bus I
reg_clk I
reg_data[0] O
reg_data[1] O
reg_data[2] O
reg_data[3] O
reg_data[4] O
reg_data[5] O
reg_data[6] O
reg_data[7] O
reg_dir I

*D_NET *1 0.00110561
*CONN
*P reg_addr[0] I
*I *76:DIODE I *D sky130_fd_sc_hd__diode_2
*I *1263:A I *D sky130_fd_sc_hd__clkbuf_1
*CAP
1 reg_addr[0] 0.000412055
2 *76:DIODE 0.00014075
3 *1263:A 0
4 *1:8 0.000552805
5 *76:DIODE *50:11 0
6 *76:DIODE *61:8 0
7 *1:8 *61:8 0
*RES
1 reg_addr[0] *1:8 12.475 
2 *1:8 *1263:A 1.6 
3 *1:8 *76:DIODE 4.12 
*END

*D_NET *2 0.000908816
*CONN
*P reg_addr[1] I
*I *77:DIODE I *D sky130_fd_sc_hd__diode_2
*I *1264:A I *D sky130_fd_sc_hd__clkbuf_1
*CAP
1 reg_addr[1] 0.000313658
2 *77:DIODE 0.00014075
3 *1264:A 0
4 *2:8 0.000454408
5 *77:DIODE *50:11 0
6 *77:DIODE *61:8 0
7 *2:8 *50:11 0
8 *2:8 *61:8 0
*RES
1 reg_addr[1] *2:8 10.75 
2 *2:8 *1264:A 1.6 
3 *2:8 *77:DIODE 4.12 
*END

*D_NET *3 0.00102689
*CONN
*P reg_addr[2] I
*I *78:DIODE I *D sky130_fd_sc_hd__diode_2
*I *1265:A I *D sky130_fd_sc_hd__clkbuf_1
*CAP
1 reg_addr[2] 0.000412055
2 *78:DIODE 0.000101392
3 *1265:A 0
4 *3:8 0.000513446
5 *3:8 *50:11 0
6 *3:8 *60:10 0
*RES
1 reg_addr[2] *3:8 12.475 
2 *3:8 *1265:A 1.6 
3 *3:8 *78:DIODE 3.43 
*END

*D_NET *4 0.00761078
*CONN
*P reg_bus I
*I *1256:D I *D sky130_fd_sc_hd__dlxtn_1
*I *1253:D I *D sky130_fd_sc_hd__dlxtn_1
*I *1250:D I *D sky130_fd_sc_hd__dlxtn_1
*I *1254:D I *D sky130_fd_sc_hd__dlxtn_1
*I *1255:D I *D sky130_fd_sc_hd__dlxtn_1
*I *1252:D I *D sky130_fd_sc_hd__dlxtn_1
*I *1251:D I *D sky130_fd_sc_hd__dlxtn_1
*I *1257:D I *D sky130_fd_sc_hd__dlxtn_1
*I *1259:Z O *D sky130_fd_sc_hd__ebufn_8
*CAP
1 reg_bus 0.000497396
2 *1256:D 0.000261247
3 *1253:D 2.0535e-05
4 *1250:D 0
5 *1254:D 0
6 *1255:D 0.00015355
7 *1252:D 0
8 *1251:D 0.000124066
9 *1257:D 0
10 *1259:Z 0
11 *4:57 0.000342457
12 *4:48 0.000475675
13 *4:41 0.000435499
14 *4:35 0.000577827
15 *4:29 0.000505675
16 *4:26 0.000560323
17 *4:19 0.00163905
18 *4:4 0.00201748
19 reg_bus *1259:A 0
20 reg_bus *1259:TE_B 0
21 reg_bus *34:8 0
22 *1251:D *1225:B 0
23 *1251:D *35:32 0
24 *1255:D *1238:A2 0
25 *1255:D *1255:GATE_N 0
26 *1256:D *38:20 0
27 *1256:D *53:8 0
28 *1256:D *66:8 0
29 *1256:D *68:40 0
30 *1256:D *68:52 0
31 *4:19 *72:DIODE 0
32 *4:19 *1214:B1 0
33 *4:19 *1217:C 0
34 *4:19 *1218:B 0
35 *4:19 *1234:A 0
36 *4:19 *1246:CLK 0
37 *4:19 *1246:D 0
38 *4:19 *1257:GATE_N 0
39 *4:19 *1258:CLK 0
40 *4:19 *1258:D 0
41 *4:19 *34:8 0
42 *4:19 *38:8 0
43 *4:19 *38:20 0
44 *4:19 *69:8 0
45 *4:19 *69:17 0
46 *4:19 *70:26 0
47 *4:19 *70:47 0
48 *4:26 *38:20 0
49 *4:26 *53:8 0
50 *4:29 *67:41 0
51 *4:29 *68:30 0
52 *4:35 *65:10 0
53 *4:41 *1254:GATE_N 0
54 *4:41 *36:8 0
55 *4:48 *36:8 0
56 *4:48 *64:27 0
57 *4:57 *1231:A 0
58 *4:57 *1238:A2 0
59 *4:57 *1255:GATE_N 0
60 *4:57 *64:27 0
*RES
1 *1259:Z *4:4 1.6 
2 *4:4 reg_bus 14.275 
3 *4:4 *4:19 35.905 
4 *4:19 *1257:D 5.6 
5 *4:19 *4:26 2.655 
6 *4:26 *4:29 7.21 
7 *4:29 *4:35 5.4 
8 *4:35 *4:41 13.67 
9 *4:41 *4:48 7.135 
10 *4:48 *1251:D 7.775 
11 *4:48 *4:57 4.185 
12 *4:57 *1252:D 5.6 
13 *4:57 *1255:D 8.9 
14 *4:41 *1254:D 1.6 
15 *4:35 *1250:D 1.6 
16 *4:29 *1253:D 1.96 
17 *4:26 *1256:D 11.315 
*END

*D_NET *5 0.00149974
*CONN
*P reg_clk I
*I *1260:A I *D sky130_fd_sc_hd__clkbuf_16
*I *75:DIODE I *D sky130_fd_sc_hd__diode_2
*CAP
1 reg_clk 0.000547546
2 *1260:A 2.26741e-05
3 *75:DIODE 0.00017965
4 *5:8 0.000749871
5 *75:DIODE *1248:CLK 0
6 *5:8 *1237:A 0
7 *5:8 *1247:D 0
8 *5:8 *1248:CLK 0
*RES
1 reg_clk *5:8 15.61 
2 *5:8 *75:DIODE 13.53 
3 *5:8 *1260:A 2.05 
*END

*D_NET *6 0.000648661
*CONN
*P reg_data[0] O
*I *1270:X O *D sky130_fd_sc_hd__buf_2
*CAP
1 reg_data[0] 0.00032433
2 *1270:X 0.00032433
*RES
1 *1270:X reg_data[0] 12.695 
*END

*D_NET *7 0.000648661
*CONN
*P reg_data[1] O
*I *1271:X O *D sky130_fd_sc_hd__buf_2
*CAP
1 reg_data[1] 0.00032433
2 *1271:X 0.00032433
*RES
1 *1271:X reg_data[1] 12.695 
*END

*D_NET *8 0.000648661
*CONN
*P reg_data[2] O
*I *1272:X O *D sky130_fd_sc_hd__buf_2
*CAP
1 reg_data[2] 0.00032433
2 *1272:X 0.00032433
*RES
1 *1272:X reg_data[2] 12.695 
*END

*D_NET *9 0.000648661
*CONN
*P reg_data[3] O
*I *1273:X O *D sky130_fd_sc_hd__buf_2
*CAP
1 reg_data[3] 0.00032433
2 *1273:X 0.00032433
*RES
1 *1273:X reg_data[3] 12.695 
*END

*D_NET *10 0.000969475
*CONN
*P reg_data[4] O
*I *1274:X O *D sky130_fd_sc_hd__buf_2
*CAP
1 reg_data[4] 0.000484738
2 *1274:X 0.000484738
*RES
1 *1274:X reg_data[4] 15.665 
*END

*D_NET *11 0.000827674
*CONN
*P reg_data[5] O
*I *1267:X O *D sky130_fd_sc_hd__buf_2
*CAP
1 reg_data[5] 0.000413837
2 *1267:X 0.000413837
3 reg_data[5] *66:20 0
*RES
1 *1267:X reg_data[5] 14.285 
*END

*D_NET *12 0.000648661
*CONN
*P reg_data[6] O
*I *1268:X O *D sky130_fd_sc_hd__buf_2
*CAP
1 reg_data[6] 0.00032433
2 *1268:X 0.00032433
*RES
1 *1268:X reg_data[6] 12.695 
*END

*D_NET *13 0.000617119
*CONN
*P reg_data[7] O
*I *1269:X O *D sky130_fd_sc_hd__buf_2
*CAP
1 reg_data[7] 0.00030856
2 *1269:X 0.00030856
*RES
1 *1269:X reg_data[7] 12.35 
*END

*D_NET *14 0.000908816
*CONN
*P reg_dir I
*I *79:DIODE I *D sky130_fd_sc_hd__diode_2
*I *1266:A I *D sky130_fd_sc_hd__clkbuf_1
*CAP
1 reg_dir 0.000313658
2 *79:DIODE 0.00014075
3 *1266:A 0
4 *14:8 0.000454408
5 *79:DIODE *61:8 0
*RES
1 reg_dir *14:8 10.75 
2 *14:8 *1266:A 1.6 
3 *14:8 *79:DIODE 4.12 
*END

*D_NET *17 0.000126167
*CONN
*I *1250:GATE_N I *D sky130_fd_sc_hd__dlxtn_1
*I *1223:Y O *D sky130_fd_sc_hd__nand2_1
*CAP
1 *1250:GATE_N 6.30833e-05
2 *1223:Y 6.30833e-05
3 *1250:GATE_N *38:33 0
4 *1250:GATE_N *63:28 0
5 *1250:GATE_N *64:27 0
*RES
1 *1223:Y *1250:GATE_N 12.58 
*END

*D_NET *18 0.000248132
*CONN
*I *1251:GATE_N I *D sky130_fd_sc_hd__dlxtn_1
*I *1225:Y O *D sky130_fd_sc_hd__nand2_1
*CAP
1 *1251:GATE_N 0.000124066
2 *1225:Y 0.000124066
3 *1251:GATE_N *1225:A 0
4 *1251:GATE_N *1225:B 0
5 *1251:GATE_N *35:32 0
*RES
1 *1225:Y *1251:GATE_N 5.375 
*END

*D_NET *19 0.000334939
*CONN
*I *1252:GATE_N I *D sky130_fd_sc_hd__dlxtn_1
*I *1227:Y O *D sky130_fd_sc_hd__nand2_1
*CAP
1 *1252:GATE_N 0.00016747
2 *1227:Y 0.00016747
3 *1252:GATE_N *1255:GATE_N 0
4 *1252:GATE_N *64:7 0
*RES
1 *1227:Y *1252:GATE_N 14.41 
*END

*D_NET *20 0.00040337
*CONN
*I *1253:GATE_N I *D sky130_fd_sc_hd__dlxtn_1
*I *1228:Y O *D sky130_fd_sc_hd__nand2_1
*CAP
1 *1253:GATE_N 0.000201685
2 *1228:Y 0.000201685
3 *1253:GATE_N *1239:B 0
4 *1253:GATE_N *35:18 0
*RES
1 *1228:Y *1253:GATE_N 15.415 
*END

*D_NET *21 0.000256222
*CONN
*I *1254:GATE_N I *D sky130_fd_sc_hd__dlxtn_1
*I *1230:Y O *D sky130_fd_sc_hd__nand2_1
*CAP
1 *1254:GATE_N 0.000128111
2 *1230:Y 0.000128111
3 *1254:GATE_N *36:8 0
4 *4:41 *1254:GATE_N 0
*RES
1 *1230:Y *1254:GATE_N 13.72 
*END

*D_NET *22 0.000312674
*CONN
*I *1255:GATE_N I *D sky130_fd_sc_hd__dlxtn_1
*I *1231:Y O *D sky130_fd_sc_hd__nand2_1
*CAP
1 *1255:GATE_N 0.000156337
2 *1231:Y 0.000156337
3 *1252:GATE_N *1255:GATE_N 0
4 *1255:D *1255:GATE_N 0
5 *4:57 *1255:GATE_N 0
*RES
1 *1231:Y *1255:GATE_N 14.62 
*END

*D_NET *23 0.000644323
*CONN
*I *1256:GATE_N I *D sky130_fd_sc_hd__dlxtn_1
*I *1232:Y O *D sky130_fd_sc_hd__nand2_1
*CAP
1 *1256:GATE_N 0.000322161
2 *1232:Y 0.000322161
3 *1256:GATE_N *1269:A 0
4 *1256:GATE_N *53:8 0
5 *1256:GATE_N *66:8 0
6 *1256:GATE_N *66:20 0
*RES
1 *1232:Y *1256:GATE_N 17.485 
*END

*D_NET *24 0.000126167
*CONN
*I *1257:GATE_N I *D sky130_fd_sc_hd__dlxtn_1
*I *1233:Y O *D sky130_fd_sc_hd__nand2_1
*CAP
1 *1257:GATE_N 6.30833e-05
2 *1233:Y 6.30833e-05
3 *1257:GATE_N *38:20 0
4 *4:19 *1257:GATE_N 0
*RES
1 *1233:Y *1257:GATE_N 12.58 
*END

*D_NET *25 0.000991416
*CONN
*I *1245:D I *D sky130_fd_sc_hd__dfxtp_2
*I *1218:Y O *D sky130_fd_sc_hd__nor2_1
*CAP
1 *1245:D 0.000495708
2 *1218:Y 0.000495708
3 *1245:D *1218:A 0
4 *1245:D *1218:B 0
5 *1245:D *1234:A 0
6 *1245:D *1245:CLK 0
7 *1245:D *69:8 0
*RES
1 *1218:Y *1245:D 20.215 
*END

*D_NET *26 0.000717562
*CONN
*I *1246:D I *D sky130_fd_sc_hd__dfxtp_1
*I *1217:Y O *D sky130_fd_sc_hd__nor3_1
*CAP
1 *1246:D 0.000358781
2 *1217:Y 0.000358781
3 *1246:D *1246:CLK 0
4 *1246:D *70:26 0
5 *1246:D *70:47 0
6 *4:19 *1246:D 0
*RES
1 *1217:Y *1246:D 18.9287 
*END

*D_NET *27 0.00309282
*CONN
*I *1247:D I *D sky130_fd_sc_hd__dfxtp_1
*I *1215:X O *D sky130_fd_sc_hd__o21a_1
*CAP
1 *1247:D 0.00154641
2 *1215:X 0.00154641
3 *1247:D *1218:A 0
4 *1247:D *1247:CLK 0
5 *1247:D *1261:A 0
6 *1247:D *1262:A 0
7 *1247:D *67:17 0
8 *1247:D *68:8 0
9 *1247:D *69:8 0