*SPEF "ieee 1481-1999"
*DESIGN "spi_device"
*DATE "11:11:11 Fri 11 11, 1111"
*VENDOR "OpenRCX"
*PROGRAM "Parallel Extraction"
*VERSION "1.0"
*DESIGN_FLOW "NAME_SCOPE LOCAL" "PIN_CAP NONE"
*DIVIDER /
*DELIMITER :
*BUS_DELIMITER []
*T_UNIT 1 NS
*C_UNIT 1 PF
*R_UNIT 1 OHM
*L_UNIT 1 HENRY

*NAME_MAP
*1 net5
*2 net6
*3 net7
*4 reg_bus
*5 reg_clk
*6 net8
*7 spi_clk
*8 spi_miso
*9 spi_mosi
*10 spi_sel
*13 _00_
*14 _01_
*15 _02_
*16 _09_
*17 _10_
*18 _11_
*19 _12_
*20 _13_
*21 _14_
*22 _15_
*23 _16_
*24 _17_
*25 _18_
*26 _19_
*27 _20_
*28 _21_
*29 _22_
*30 _23_
*31 _24_
*32 _25_
*33 _26_
*34 _27_
*35 _28_
*36 _29_
*37 _30_
*38 _31_
*39 clknet_0_spi_clk
*40 clknet_1_0__leaf_spi_clk
*41 clknet_1_1__leaf_spi_clk
*42 net1
*43 net10
*44 net11
*45 net12
*46 net13
*47 net14
*48 net15
*49 net2
*50 net3
*51 net4
*52 net9
*53 pres_state\[0\]
*54 pres_state\[1\]
*55 t\[0\]
*56 t\[1\]
*57 t\[2\]
*58 t\[3\]
*59 ANTENNA__57__A
*60 ANTENNA__70__D
*61 ANTENNA_clkbuf_0_spi_clk_A
*62 ANTENNA_input1_A
*63 ANTENNA_output2_A
*64 ANTENNA_output3_A
*65 FILLER_0_109
*66 FILLER_0_113
*67 FILLER_0_125
*68 FILLER_0_137
*69 FILLER_0_141
*70 FILLER_0_15
*71 FILLER_0_153
*72 FILLER_0_165
*73 FILLER_0_169
*74 FILLER_0_181
*75 FILLER_0_193
*76 FILLER_0_197
*77 FILLER_0_209
*78 FILLER_0_221
*79 FILLER_0_225
*80 FILLER_0_237
*81 FILLER_0_249
*82 FILLER_0_253
*83 FILLER_0_265
*84 FILLER_0_27
*85 FILLER_0_277
*86 FILLER_0_281
*87 FILLER_0_29
*88 FILLER_0_293
*89 FILLER_0_3
*90 FILLER_0_305
*91 FILLER_0_309
*92 FILLER_0_321
*93 FILLER_0_333
*94 FILLER_0_337
*95 FILLER_0_349
*96 FILLER_0_361
*97 FILLER_0_365
*98 FILLER_0_377
*99 FILLER_0_389
*100 FILLER_0_393
*101 FILLER_0_405
*102 FILLER_0_41
*103 FILLER_0_417
*104 FILLER_0_421
*105 FILLER_0_433
*106 FILLER_0_445
*107 FILLER_0_449
*108 FILLER_0_461
*109 FILLER_0_473
*110 FILLER_0_477
*111 FILLER_0_489
*112 FILLER_0_501
*113 FILLER_0_505
*114 FILLER_0_513
*115 FILLER_0_53
*116 FILLER_0_57
*117 FILLER_0_69
*118 FILLER_0_81
*119 FILLER_0_85
*120 FILLER_0_97
*121 FILLER_10_109
*122 FILLER_10_121
*123 FILLER_10_133
*124 FILLER_10_139
*125 FILLER_10_141
*126 FILLER_10_15
*127 FILLER_10_153
*128 FILLER_10_165
*129 FILLER_10_177
*130 FILLER_10_189
*131 FILLER_10_195
*132 FILLER_10_197
*133 FILLER_10_209
*134 FILLER_10_221
*135 FILLER_10_233
*136 FILLER_10_245
*137 FILLER_10_251
*138 FILLER_10_253
*139 FILLER_10_265
*140 FILLER_10_27
*141 FILLER_10_277
*142 FILLER_10_289
*143 FILLER_10_29
*144 FILLER_10_3
*145 FILLER_10_301
*146 FILLER_10_307
*147 FILLER_10_309
*148 FILLER_10_321
*149 FILLER_10_333
*150 FILLER_10_345
*151 FILLER_10_357
*152 FILLER_10_363
*153 FILLER_10_365
*154 FILLER_10_377
*155 FILLER_10_389
*156 FILLER_10_401
*157 FILLER_10_41
*158 FILLER_10_413
*159 FILLER_10_419
*160 FILLER_10_421
*161 FILLER_10_433
*162 FILLER_10_445
*163 FILLER_10_457
*164 FILLER_10_469
*165 FILLER_10_475
*166 FILLER_10_477
*167 FILLER_10_489
*168 FILLER_10_501
*169 FILLER_10_513
*170 FILLER_10_53
*171 FILLER_10_65
*172 FILLER_10_77
*173 FILLER_10_83
*174 FILLER_10_85
*175 FILLER_10_97
*176 FILLER_11_105
*177 FILLER_11_111
*178 FILLER_11_113
*179 FILLER_11_125
*180 FILLER_11_137
*181 FILLER_11_149
*182 FILLER_11_15
*183 FILLER_11_161
*184 FILLER_11_167
*185 FILLER_11_169
*186 FILLER_11_181
*187 FILLER_11_193
*188 FILLER_11_205
*189 FILLER_11_217
*190 FILLER_11_223
*191 FILLER_11_225
*192 FILLER_11_237
*193 FILLER_11_249
*194 FILLER_11_261
*195 FILLER_11_27
*196 FILLER_11_273
*197 FILLER_11_279
*198 FILLER_11_281
*199 FILLER_11_293
*200 FILLER_11_3
*201 FILLER_11_305
*202 FILLER_11_317
*203 FILLER_11_329
*204 FILLER_11_335
*205 FILLER_11_337
*206 FILLER_11_349
*207 FILLER_11_361
*208 FILLER_11_373
*209 FILLER_11_385
*210 FILLER_11_39
*211 FILLER_11_391
*212 FILLER_11_393
*213 FILLER_11_405
*214 FILLER_11_417
*215 FILLER_11_429
*216 FILLER_11_441
*217 FILLER_11_447
*218 FILLER_11_449
*219 FILLER_11_461
*220 FILLER_11_473
*221 FILLER_11_485
*222 FILLER_11_497
*223 FILLER_11_503
*224 FILLER_11_505
*225 FILLER_11_51
*226 FILLER_11_513
*227 FILLER_11_55
*228 FILLER_11_57
*229 FILLER_11_69
*230 FILLER_11_81
*231 FILLER_11_93
*232 FILLER_12_109
*233 FILLER_12_121
*234 FILLER_12_133
*235 FILLER_12_139
*236 FILLER_12_141
*237 FILLER_12_15
*238 FILLER_12_153
*239 FILLER_12_165
*240 FILLER_12_177
*241 FILLER_12_189
*242 FILLER_12_195
*243 FILLER_12_197
*244 FILLER_12_209
*245 FILLER_12_221
*246 FILLER_12_233
*247 FILLER_12_245
*248 FILLER_12_251
*249 FILLER_12_253
*250 FILLER_12_265
*251 FILLER_12_27
*252 FILLER_12_277
*253 FILLER_12_289
*254 FILLER_12_29
*255 FILLER_12_3
*256 FILLER_12_301
*257 FILLER_12_307
*258 FILLER_12_309
*259 FILLER_12_321
*260 FILLER_12_333
*261 FILLER_12_345
*262 FILLER_12_357
*263 FILLER_12_363
*264 FILLER_12_365
*265 FILLER_12_377
*266 FILLER_12_389
*267 FILLER_12_401
*268 FILLER_12_41
*269 FILLER_12_413
*270 FILLER_12_419
*271 FILLER_12_421
*272 FILLER_12_433
*273 FILLER_12_445
*274 FILLER_12_457
*275 FILLER_12_469
*276 FILLER_12_475
*277 FILLER_12_477
*278 FILLER_12_489
*279 FILLER_12_501
*280 FILLER_12_513
*281 FILLER_12_53
*282 FILLER_12_65
*283 FILLER_12_77
*284 FILLER_12_83
*285 FILLER_12_85
*286 FILLER_12_97
*287 FILLER_13_105
*288 FILLER_13_111
*289 FILLER_13_113
*290 FILLER_13_125
*291 FILLER_13_137
*292 FILLER_13_149
*293 FILLER_13_15
*294 FILLER_13_161
*295 FILLER_13_167
*296 FILLER_13_169
*297 FILLER_13_181
*298 FILLER_13_193
*299 FILLER_13_205
*300 FILLER_13_217
*301 FILLER_13_223
*302 FILLER_13_225
*303 FILLER_13_237
*304 FILLER_13_249
*305 FILLER_13_261
*306 FILLER_13_27
*307 FILLER_13_273
*308 FILLER_13_279
*309 FILLER_13_281
*310 FILLER_13_293
*311 FILLER_13_3
*312 FILLER_13_305
*313 FILLER_13_317
*314 FILLER_13_329
*315 FILLER_13_335
*316 FILLER_13_337
*317 FILLER_13_349
*318 FILLER_13_361
*319 FILLER_13_373
*320 FILLER_13_385
*321 FILLER_13_39
*322 FILLER_13_391
*323 FILLER_13_393
*324 FILLER_13_405
*325 FILLER_13_417
*326 FILLER_13_429
*327 FILLER_13_441
*328 FILLER_13_447
*329 FILLER_13_449
*330 FILLER_13_461
*331 FILLER_13_473
*332 FILLER_13_485
*333 FILLER_13_497
*334 FILLER_13_503
*335 FILLER_13_505
*336 FILLER_13_51
*337 FILLER_13_513
*338 FILLER_13_55
*339 FILLER_13_57
*340 FILLER_13_69
*341 FILLER_13_81
*342 FILLER_13_93
*343 FILLER_14_109
*344 FILLER_14_121
*345 FILLER_14_133
*346 FILLER_14_139
*347 FILLER_14_141
*348 FILLER_14_15
*349 FILLER_14_153
*350 FILLER_14_165
*351 FILLER_14_177
*352 FILLER_14_189
*353 FILLER_14_195
*354 FILLER_14_197
*355 FILLER_14_209
*356 FILLER_14_221
*357 FILLER_14_233
*358 FILLER_14_245
*359 FILLER_14_251
*360 FILLER_14_253
*361 FILLER_14_265
*362 FILLER_14_27
*363 FILLER_14_277
*364 FILLER_14_289
*365 FILLER_14_29
*366 FILLER_14_3
*367 FILLER_14_301
*368 FILLER_14_307
*369 FILLER_14_309
*370 FILLER_14_321
*371 FILLER_14_333
*372 FILLER_14_345
*373 FILLER_14_357
*374 FILLER_14_363
*375 FILLER_14_365
*376 FILLER_14_377
*377 FILLER_14_389
*378 FILLER_14_401
*379 FILLER_14_41
*380 FILLER_14_413
*381 FILLER_14_419
*382 FILLER_14_421
*383 FILLER_14_433
*384 FILLER_14_445
*385 FILLER_14_457
*386 FILLER_14_469
*387 FILLER_14_475
*388 FILLER_14_477
*389 FILLER_14_489
*390 FILLER_14_501
*391 FILLER_14_513
*392 FILLER_14_53
*393 FILLER_14_65
*394 FILLER_14_77
*395 FILLER_14_83
*396 FILLER_14_85
*397 FILLER_14_97
*398 FILLER_15_105
*399 FILLER_15_111
*400 FILLER_15_113
*401 FILLER_15_125
*402 FILLER_15_137
*403 FILLER_15_149
*404 FILLER_15_15
*405 FILLER_15_161
*406 FILLER_15_167
*407 FILLER_15_169
*408 FILLER_15_181
*409 FILLER_15_193
*410 FILLER_15_205
*411 FILLER_15_217
*412 FILLER_15_223
*413 FILLER_15_225
*414 FILLER_15_237
*415 FILLER_15_249
*416 FILLER_15_261
*417 FILLER_15_27
*418 FILLER_15_273
*419 FILLER_15_279
*420 FILLER_15_281
*421 FILLER_15_293
*422 FILLER_15_3
*423 FILLER_15_305
*424 FILLER_15_317
*425 FILLER_15_329
*426 FILLER_15_335
*427 FILLER_15_337
*428 FILLER_15_349
*429 FILLER_15_361
*430 FILLER_15_373
*431 FILLER_15_385
*432 FILLER_15_39
*433 FILLER_15_391
*434 FILLER_15_393
*435 FILLER_15_405
*436 FILLER_15_417
*437 FILLER_15_429
*438 FILLER_15_441
*439 FILLER_15_447
*440 FILLER_15_449
*441 FILLER_15_461
*442 FILLER_15_473
*443 FILLER_15_485
*444 FILLER_15_497
*445 FILLER_15_503
*446 FILLER_15_505
*447 FILLER_15_51
*448 FILLER_15_513
*449 FILLER_15_55
*450 FILLER_15_57
*451 FILLER_15_69
*452 FILLER_15_81
*453 FILLER_15_93
*454 FILLER_16_109
*455 FILLER_16_121
*456 FILLER_16_133
*457 FILLER_16_139
*458 FILLER_16_141
*459 FILLER_16_15
*460 FILLER_16_153
*461 FILLER_16_165
*462 FILLER_16_177
*463 FILLER_16_189
*464 FILLER_16_195
*465 FILLER_16_197
*466 FILLER_16_209
*467 FILLER_16_221
*468 FILLER_16_233
*469 FILLER_16_245
*470 FILLER_16_251
*471 FILLER_16_253
*472 FILLER_16_265
*473 FILLER_16_27
*474 FILLER_16_277
*475 FILLER_16_289
*476 FILLER_16_29
*477 FILLER_16_3
*478 FILLER_16_301
*479 FILLER_16_307
*480 FILLER_16_309
*481 FILLER_16_321
*482 FILLER_16_333
*483 FILLER_16_345
*484 FILLER_16_357
*485 FILLER_16_363
*486 FILLER_16_365
*487 FILLER_16_377
*488 FILLER_16_389
*489 FILLER_16_401
*490 FILLER_16_41
*491 FILLER_16_413
*492 FILLER_16_419
*493 FILLER_16_421
*494 FILLER_16_433
*495 FILLER_16_445
*496 FILLER_16_457
*497 FILLER_16_469
*498 FILLER_16_475
*499 FILLER_16_477
*500 FILLER_16_489
*501 FILLER_16_501
*502 FILLER_16_513
*503 FILLER_16_53
*504 FILLER_16_65
*505 FILLER_16_77
*506 FILLER_16_83
*507 FILLER_16_85
*508 FILLER_16_97
*509 FILLER_17_105
*510 FILLER_17_111
*511 FILLER_17_113
*512 FILLER_17_125
*513 FILLER_17_137
*514 FILLER_17_149
*515 FILLER_17_15
*516 FILLER_17_161
*517 FILLER_17_167
*518 FILLER_17_169
*519 FILLER_17_181
*520 FILLER_17_193
*521 FILLER_17_205
*522 FILLER_17_217
*523 FILLER_17_223
*524 FILLER_17_225
*525 FILLER_17_237
*526 FILLER_17_249
*527 FILLER_17_261
*528 FILLER_17_27
*529 FILLER_17_273
*530 FILLER_17_279
*531 FILLER_17_281
*532 FILLER_17_293
*533 FILLER_17_3
*534 FILLER_17_305
*535 FILLER_17_317
*536 FILLER_17_329
*537 FILLER_17_335
*538 FILLER_17_337
*539 FILLER_17_349
*540 FILLER_17_361
*541 FILLER_17_373
*542 FILLER_17_385
*543 FILLER_17_39
*544 FILLER_17_391
*545 FILLER_17_393
*546 FILLER_17_405
*547 FILLER_17_417
*548 FILLER_17_429
*549 FILLER_17_441
*550 FILLER_17_447
*551 FILLER_17_449
*552 FILLER_17_461
*553 FILLER_17_473
*554 FILLER_17_485
*555 FILLER_17_497
*556 FILLER_17_503
*557 FILLER_17_505
*558 FILLER_17_51
*559 FILLER_17_513
*560 FILLER_17_55
*561 FILLER_17_57
*562 FILLER_17_69
*563 FILLER_17_81
*564 FILLER_17_93
*565 FILLER_18_109
*566 FILLER_18_121
*567 FILLER_18_133
*568 FILLER_18_139
*569 FILLER_18_141
*570 FILLER_18_15
*571 FILLER_18_153
*572 FILLER_18_165
*573 FILLER_18_177
*574 FILLER_18_189
*575 FILLER_18_195
*576 FILLER_18_197
*577 FILLER_18_209
*578 FILLER_18_221
*579 FILLER_18_233
*580 FILLER_18_245
*581 FILLER_18_251
*582 FILLER_18_253
*583 FILLER_18_265
*584 FILLER_18_27
*585 FILLER_18_277
*586 FILLER_18_289
*587 FILLER_18_29
*588 FILLER_18_3
*589 FILLER_18_301
*590 FILLER_18_307
*591 FILLER_18_309
*592 FILLER_18_321
*593 FILLER_18_333
*594 FILLER_18_345
*595 FILLER_18_357
*596 FILLER_18_363
*597 FILLER_18_365
*598 FILLER_18_377
*599 FILLER_18_389
*600 FILLER_18_401
*601 FILLER_18_41
*602 FILLER_18_413
*603 FILLER_18_419
*604 FILLER_18_421
*605 FILLER_18_433
*606 FILLER_18_445
*607 FILLER_18_457
*608 FILLER_18_469
*609 FILLER_18_475
*610 FILLER_18_477
*611 FILLER_18_489
*612 FILLER_18_501
*613 FILLER_18_513
*614 FILLER_18_53
*615 FILLER_18_65
*616 FILLER_18_77
*617 FILLER_18_83
*618 FILLER_18_85
*619 FILLER_18_97
*620 FILLER_19_105
*621 FILLER_19_111
*622 FILLER_19_113
*623 FILLER_19_125
*624 FILLER_19_137
*625 FILLER_19_149
*626 FILLER_19_15
*627 FILLER_19_161
*628 FILLER_19_167
*629 FILLER_19_169
*630 FILLER_19_181
*631 FILLER_19_193
*632 FILLER_19_205
*633 FILLER_19_217
*634 FILLER_19_223
*635 FILLER_19_225
*636 FILLER_19_237
*637 FILLER_19_249
*638 FILLER_19_261
*639 FILLER_19_27
*640 FILLER_19_273
*641 FILLER_19_279
*642 FILLER_19_281
*643 FILLER_19_293
*644 FILLER_19_3
*645 FILLER_19_305
*646 FILLER_19_317
*647 FILLER_19_329
*648 FILLER_19_335
*649 FILLER_19_337
*650 FILLER_19_349
*651 FILLER_19_361
*652 FILLER_19_373
*653 FILLER_19_385
*654 FILLER_19_39
*655 FILLER_19_391
*656 FILLER_19_393
*657 FILLER_19_405
*658 FILLER_19_417
*659 FILLER_19_429
*660 FILLER_19_441
*661 FILLER_19_447
*662 FILLER_19_449
*663 FILLER_19_461
*664 FILLER_19_473
*665 FILLER_19_485
*666 FILLER_19_497
*667 FILLER_19_503
*668 FILLER_19_505
*669 FILLER_19_51
*670 FILLER_19_513
*671 FILLER_19_55
*672 FILLER_19_57
*673 FILLER_19_69
*674 FILLER_19_81
*675 FILLER_19_93
*676 FILLER_1_105
*677 FILLER_1_111
*678 FILLER_1_113
*679 FILLER_1_125
*680 FILLER_1_137
*681 FILLER_1_149
*682 FILLER_1_15
*683 FILLER_1_161
*684 FILLER_1_167
*685 FILLER_1_169
*686 FILLER_1_181
*687 FILLER_1_193
*688 FILLER_1_205
*689 FILLER_1_217
*690 FILLER_1_223
*691 FILLER_1_225
*692 FILLER_1_237
*693 FILLER_1_249
*694 FILLER_1_261
*695 FILLER_1_27
*696 FILLER_1_273
*697 FILLER_1_279
*698 FILLER_1_281
*699 FILLER_1_293
*700 FILLER_1_3
*701 FILLER_1_305
*702 FILLER_1_317
*703 FILLER_1_329
*704 FILLER_1_335
*705 FILLER_1_337
*706 FILLER_1_349
*707 FILLER_1_361
*708 FILLER_1_373
*709 FILLER_1_385
*710 FILLER_1_39
*711 FILLER_1_391
*712 FILLER_1_393
*713 FILLER_1_405
*714 FILLER_1_417
*715 FILLER_1_429
*716 FILLER_1_441
*717 FILLER_1_447
*718 FILLER_1_449
*719 FILLER_1_461
*720 FILLER_1_473
*721 FILLER_1_485
*722 FILLER_1_497
*723 FILLER_1_503
*724 FILLER_1_505
*725 FILLER_1_51
*726 FILLER_1_513
*727 FILLER_1_55
*728 FILLER_1_57
*729 FILLER_1_69
*730 FILLER_1_81
*731 FILLER_1_93
*732 FILLER_20_109
*733 FILLER_20_121
*734 FILLER_20_133
*735 FILLER_20_139
*736 FILLER_20_141
*737 FILLER_20_15
*738 FILLER_20_153
*739 FILLER_20_165
*740 FILLER_20_177
*741 FILLER_20_189
*742 FILLER_20_195
*743 FILLER_20_197
*744 FILLER_20_209
*745 FILLER_20_221
*746 FILLER_20_233
*747 FILLER_20_245
*748 FILLER_20_251
*749 FILLER_20_253
*750 FILLER_20_265
*751 FILLER_20_27
*752 FILLER_20_277
*753 FILLER_20_289
*754 FILLER_20_29
*755 FILLER_20_3
*756 FILLER_20_301
*757 FILLER_20_307
*758 FILLER_20_309
*759 FILLER_20_321
*760 FILLER_20_333
*761 FILLER_20_345
*762 FILLER_20_357
*763 FILLER_20_363
*764 FILLER_20_365
*765 FILLER_20_377
*766 FILLER_20_389
*767 FILLER_20_401
*768 FILLER_20_41
*769 FILLER_20_413
*770 FILLER_20_419
*771 FILLER_20_421
*772 FILLER_20_433
*773 FILLER_20_445
*774 FILLER_20_457
*775 FILLER_20_469
*776 FILLER_20_475
*777 FILLER_20_477
*778 FILLER_20_489
*779 FILLER_20_501
*780 FILLER_20_513
*781 FILLER_20_53
*782 FILLER_20_65
*783 FILLER_20_77
*784 FILLER_20_83
*785 FILLER_20_85
*786 FILLER_20_97
*787 FILLER_21_105
*788 FILLER_21_111
*789 FILLER_21_113
*790 FILLER_21_125
*791 FILLER_21_137
*792 FILLER_21_149
*793 FILLER_21_15
*794 FILLER_21_161
*795 FILLER_21_167
*796 FILLER_21_169
*797 FILLER_21_181
*798 FILLER_21_193
*799 FILLER_21_205
*800 FILLER_21_217
*801 FILLER_21_223
*802 FILLER_21_225
*803 FILLER_21_237
*804 FILLER_21_249
*805 FILLER_21_261
*806 FILLER_21_27
*807 FILLER_21_273
*808 FILLER_21_279
*809 FILLER_21_281
*810 FILLER_21_293
*811 FILLER_21_3
*812 FILLER_21_305
*813 FILLER_21_317
*814 FILLER_21_329
*815 FILLER_21_335
*816 FILLER_21_337
*817 FILLER_21_349
*818 FILLER_21_361
*819 FILLER_21_373
*820 FILLER_21_385
*821 FILLER_21_39
*822 FILLER_21_391
*823 FILLER_21_393
*824 FILLER_21_405
*825 FILLER_21_417
*826 FILLER_21_429
*827 FILLER_21_441
*828 FILLER_21_447
*829 FILLER_21_449
*830 FILLER_21_461
*831 FILLER_21_473
*832 FILLER_21_485
*833 FILLER_21_497
*834 FILLER_21_503
*835 FILLER_21_505
*836 FILLER_21_51
*837 FILLER_21_513
*838 FILLER_21_55
*839 FILLER_21_57
*840 FILLER_21_69
*841 FILLER_21_81
*842 FILLER_21_93
*843 FILLER_22_109
*844 FILLER_22_121
*845 FILLER_22_133
*846 FILLER_22_139
*847 FILLER_22_141
*848 FILLER_22_15
*849 FILLER_22_153
*850 FILLER_22_165
*851 FILLER_22_177
*852 FILLER_22_189
*853 FILLER_22_195
*854 FILLER_22_197
*855 FILLER_22_209
*856 FILLER_22_221
*857 FILLER_22_233
*858 FILLER_22_245
*859 FILLER_22_251
*860 FILLER_22_253
*861 FILLER_22_265
*862 FILLER_22_27
*863 FILLER_22_277
*864 FILLER_22_289
*865 FILLER_22_29
*866 FILLER_22_3
*867 FILLER_22_301
*868 FILLER_22_307
*869 FILLER_22_309
*870 FILLER_22_321
*871 FILLER_22_333
*872 FILLER_22_345
*873 FILLER_22_357
*874 FILLER_22_363
*875 FILLER_22_365
*876 FILLER_22_377
*877 FILLER_22_389
*878 FILLER_22_401
*879 FILLER_22_41
*880 FILLER_22_413
*881 FILLER_22_419
*882 FILLER_22_421
*883 FILLER_22_433
*884 FILLER_22_445
*885 FILLER_22_457
*886 FILLER_22_469
*887 FILLER_22_475
*888 FILLER_22_477
*889 FILLER_22_489
*890 FILLER_22_501
*891 FILLER_22_513
*892 FILLER_22_53
*893 FILLER_22_65
*894 FILLER_22_77
*895 FILLER_22_83
*896 FILLER_22_85
*897 FILLER_22_97
*898 FILLER_23_105
*899 FILLER_23_111
*900 FILLER_23_113
*901 FILLER_23_125
*902 FILLER_23_137
*903 FILLER_23_149
*904 FILLER_23_15
*905 FILLER_23_161
*906 FILLER_23_167
*907 FILLER_23_169
*908 FILLER_23_181
*909 FILLER_23_193
*910 FILLER_23_205
*911 FILLER_23_217
*912 FILLER_23_223
*913 FILLER_23_225
*914 FILLER_23_237
*915 FILLER_23_249
*916 FILLER_23_261
*917 FILLER_23_27
*918 FILLER_23_273
*919 FILLER_23_279
*920 FILLER_23_281
*921 FILLER_23_293
*922 FILLER_23_3
*923 FILLER_23_305
*924 FILLER_23_317
*925 FILLER_23_329
*926 FILLER_23_335
*927 FILLER_23_337
*928 FILLER_23_349
*929 FILLER_23_361
*930 FILLER_23_373
*931 FILLER_23_385
*932 FILLER_23_39
*933 FILLER_23_391
*934 FILLER_23_393
*935 FILLER_23_405
*936 FILLER_23_417
*937 FILLER_23_429
*938 FILLER_23_441
*939 FILLER_23_447
*940 FILLER_23_449
*941 FILLER_23_461
*942 FILLER_23_473
*943 FILLER_23_485
*944 FILLER_23_497
*945 FILLER_23_503
*946 FILLER_23_505
*947 FILLER_23_51
*948 FILLER_23_513
*949 FILLER_23_55
*950 FILLER_23_57
*951 FILLER_23_69
*952 FILLER_23_81
*953 FILLER_23_93
*954 FILLER_24_109
*955 FILLER_24_121
*956 FILLER_24_133
*957 FILLER_24_139
*958 FILLER_24_141
*959 FILLER_24_15
*960 FILLER_24_153
*961 FILLER_24_165
*962 FILLER_24_177
*963 FILLER_24_189
*964 FILLER_24_195
*965 FILLER_24_197
*966 FILLER_24_209
*967 FILLER_24_221
*968 FILLER_24_233
*969 FILLER_24_245
*970 FILLER_24_251
*971 FILLER_24_253
*972 FILLER_24_265
*973 FILLER_24_27
*974 FILLER_24_277
*975 FILLER_24_289
*976 FILLER_24_29
*977 FILLER_24_3
*978 FILLER_24_301
*979 FILLER_24_307
*980 FILLER_24_309
*981 FILLER_24_321
*982 FILLER_24_333
*983 FILLER_24_345
*984 FILLER_24_357
*985 FILLER_24_363
*986 FILLER_24_365
*987 FILLER_24_377
*988 FILLER_24_389
*989 FILLER_24_401
*990 FILLER_24_41
*991 FILLER_24_413
*992 FILLER_24_419
*993 FILLER_24_421
*994 FILLER_24_433
*995 FILLER_24_445
*996 FILLER_24_457
*997 FILLER_24_469
*998 FILLER_24_475
*999 FILLER_24_477
*1000 FILLER_24_489
*1001 FILLER_24_501
*1002 FILLER_24_513
*1003 FILLER_24_53
*1004 FILLER_24_65
*1005 FILLER_24_77
*1006 FILLER_24_83
*1007 FILLER_24_85
*1008 FILLER_24_97
*1009 FILLER_25_105
*1010 FILLER_25_111
*1011 FILLER_25_113
*1012 FILLER_25_125
*1013 FILLER_25_137
*1014 FILLER_25_149
*1015 FILLER_25_15
*1016 FILLER_25_161
*1017 FILLER_25_167
*1018 FILLER_25_169
*1019 FILLER_25_181
*1020 FILLER_25_193
*1021 FILLER_25_205
*1022 FILLER_25_217
*1023 FILLER_25_223
*1024 FILLER_25_225
*1025 FILLER_25_237
*1026 FILLER_25_249
*1027 FILLER_25_261
*1028 FILLER_25_27
*1029 FILLER_25_273
*1030 FILLER_25_279
*1031 FILLER_25_281
*1032 FILLER_25_293
*1033 FILLER_25_3
*1034 FILLER_25_305
*1035 FILLER_25_317
*1036 FILLER_25_329
*1037 FILLER_25_335
*1038 FILLER_25_337
*1039 FILLER_25_349
*1040 FILLER_25_361
*1041 FILLER_25_373
*1042 FILLER_25_385
*1043 FILLER_25_39
*1044 FILLER_25_391
*1045 FILLER_25_393
*1046 FILLER_25_405
*1047 FILLER_25_417
*1048 FILLER_25_429
*1049 FILLER_25_441
*1050 FILLER_25_447
*1051 FILLER_25_449
*1052 FILLER_25_461
*1053 FILLER_25_473
*1054 FILLER_25_485
*1055 FILLER_25_497
*1056 FILLER_25_503
*1057 FILLER_25_505
*1058 FILLER_25_51
*1059 FILLER_25_513
*1060 FILLER_25_55
*1061 FILLER_25_57
*1062 FILLER_25_69
*1063 FILLER_25_81
*1064 FILLER_25_93
*1065 FILLER_26_109
*1066 FILLER_26_121
*1067 FILLER_26_133
*1068 FILLER_26_139
*1069 FILLER_26_141
*1070 FILLER_26_15
*1071 FILLER_26_153
*1072 FILLER_26_165
*1073 FILLER_26_177
*1074 FILLER_26_189
*1075 FILLER_26_195
*1076 FILLER_26_197
*1077 FILLER_26_209
*1078 FILLER_26_221
*1079 FILLER_26_233
*1080 FILLER_26_245
*1081 FILLER_26_251
*1082 FILLER_26_253
*1083 FILLER_26_265
*1084 FILLER_26_27
*1085 FILLER_26_277
*1086 FILLER_26_289
*1087 FILLER_26_29
*1088 FILLER_26_3
*1089 FILLER_26_301
*1090 FILLER_26_307
*1091 FILLER_26_309
*1092 FILLER_26_321
*1093 FILLER_26_333
*1094 FILLER_26_345
*1095 FILLER_26_357
*1096 FILLER_26_363
*1097 FILLER_26_365
*1098 FILLER_26_377
*1099 FILLER_26_389
*1100 FILLER_26_401
*1101 FILLER_26_41
*1102 FILLER_26_413
*1103 FILLER_26_419
*1104 FILLER_26_421
*1105 FILLER_26_433
*1106 FILLER_26_445
*1107 FILLER_26_457
*1108 FILLER_26_469
*1109 FILLER_26_475
*1110 FILLER_26_477
*1111 FILLER_26_489
*1112 FILLER_26_501
*1113 FILLER_26_513
*1114 FILLER_26_53
*1115 FILLER_26_65
*1116 FILLER_26_77
*1117 FILLER_26_83
*1118 FILLER_26_85
*1119 FILLER_26_97
*1120 FILLER_27_105
*1121 FILLER_27_111
*1122 FILLER_27_113
*1123 FILLER_27_125
*1124 FILLER_27_137
*1125 FILLER_27_149
*1126 FILLER_27_15
*1127 FILLER_27_161
*1128 FILLER_27_167
*1129 FILLER_27_169
*1130 FILLER_27_181
*1131 FILLER_27_193
*1132 FILLER_27_205
*1133 FILLER_27_217
*1134 FILLER_27_223
*1135 FILLER_27_225
*1136 FILLER_27_237
*1137 FILLER_27_249
*1138 FILLER_27_261
*1139 FILLER_27_27
*1140 FILLER_27_273
*1141 FILLER_27_279
*1142 FILLER_27_281
*1143 FILLER_27_293
*1144 FILLER_27_3
*1145 FILLER_27_305
*1146 FILLER_27_317
*1147 FILLER_27_329
*1148 FILLER_27_335
*1149 FILLER_27_337
*1150 FILLER_27_349
*1151 FILLER_27_361
*1152 FILLER_27_373
*1153 FILLER_27_385
*1154 FILLER_27_39
*1155 FILLER_27_391
*1156 FILLER_27_393
*1157 FILLER_27_405
*1158 FILLER_27_417
*1159 FILLER_27_429
*1160 FILLER_27_441
*1161 FILLER_27_447
*1162 FILLER_27_449
*1163 FILLER_27_461
*1164 FILLER_27_473
*1165 FILLER_27_485
*1166 FILLER_27_497
*1167 FILLER_27_503
*1168 FILLER_27_505
*1169 FILLER_27_51
*1170 FILLER_27_513
*1171 FILLER_27_55
*1172 FILLER_27_57
*1173 FILLER_27_69
*1174 FILLER_27_81
*1175 FILLER_27_93
*1176 FILLER_28_109
*1177 FILLER_28_121
*1178 FILLER_28_133
*1179 FILLER_28_139
*1180 FILLER_28_141
*1181 FILLER_28_15
*1182 FILLER_28_153
*1183 FILLER_28_165
*1184 FILLER_28_177
*1185 FILLER_28_189
*1186 FILLER_28_195
*1187 FILLER_28_197
*1188 FILLER_28_209
*1189 FILLER_28_221
*1190 FILLER_28_233
*1191 FILLER_28_245
*1192 FILLER_28_251
*1193 FILLER_28_253
*1194 FILLER_28_265
*1195 FILLER_28_27
*1196 FILLER_28_277
*1197 FILLER_28_289
*1198 FILLER_28_29
*1199 FILLER_28_3
*1200 FILLER_28_301
*1201 FILLER_28_307
*1202 FILLER_28_309
*1203 FILLER_28_321
*1204 FILLER_28_333
*1205 FILLER_28_345
*1206 FILLER_28_357
*1207 FILLER_28_363
*1208 FILLER_28_365
*1209 FILLER_28_377
*1210 FILLER_28_389
*1211 FILLER_28_401
*1212 FILLER_28_41
*1213 FILLER_28_413
*1214 FILLER_28_419
*1215 FILLER_28_421
*1216 FILLER_28_433
*1217 FILLER_28_445
*1218 FILLER_28_457
*1219 FILLER_28_469
*1220 FILLER_28_475
*1221 FILLER_28_477
*1222 FILLER_28_489
*1223 FILLER_28_501
*1224 FILLER_28_513
*1225 FILLER_28_53
*1226 FILLER_28_65
*1227 FILLER_28_77
*1228 FILLER_28_83
*1229 FILLER_28_85
*1230 FILLER_28_97
*1231 FILLER_29_105
*1232 FILLER_29_111
*1233 FILLER_29_113
*1234 FILLER_29_125
*1235 FILLER_29_137
*1236 FILLER_29_149
*1237 FILLER_29_15
*1238 FILLER_29_161
*1239 FILLER_29_167
*1240 FILLER_29_169
*1241 FILLER_29_181
*1242 FILLER_29_193
*1243 FILLER_29_205
*1244 FILLER_29_217
*1245 FILLER_29_223
*1246 FILLER_29_225
*1247 FILLER_29_237
*1248 FILLER_29_249
*1249 FILLER_29_261
*1250 FILLER_29_27
*1251 FILLER_29_273
*1252 FILLER_29_279
*1253 FILLER_29_281
*1254 FILLER_29_293
*1255 FILLER_29_3
*1256 FILLER_29_305
*1257 FILLER_29_317
*1258 FILLER_29_329
*1259 FILLER_29_335
*1260 FILLER_29_337
*1261 FILLER_29_349
*1262 FILLER_29_361
*1263 FILLER_29_373
*1264 FILLER_29_385
*1265 FILLER_29_39
*1266 FILLER_29_391
*1267 FILLER_29_393
*1268 FILLER_29_405
*1269 FILLER_29_417
*1270 FILLER_29_429
*1271 FILLER_29_441
*1272 FILLER_29_447
*1273 FILLER_29_449
*1274 FILLER_29_461
*1275 FILLER_29_473
*1276 FILLER_29_485
*1277 FILLER_29_497
*1278 FILLER_29_503
*1279 FILLER_29_505
*1280 FILLER_29_51
*1281 FILLER_29_513
*1282 FILLER_29_55
*1283 FILLER_29_57
*1284 FILLER_29_69
*1285 FILLER_29_81
*1286 FILLER_29_93
*1287 FILLER_2_109
*1288 FILLER_2_121
*1289 FILLER_2_133
*1290 FILLER_2_139
*1291 FILLER_2_141
*1292 FILLER_2_15
*1293 FILLER_2_153
*1294 FILLER_2_165
*1295 FILLER_2_177
*1296 FILLER_2_189
*1297 FILLER_2_195
*1298 FILLER_2_197
*1299 FILLER_2_209
*1300 FILLER_2_221
*1301 FILLER_2_233
*1302 FILLER_2_245
*1303 FILLER_2_251
*1304 FILLER_2_253
*1305 FILLER_2_265
*1306 FILLER_2_27
*1307 FILLER_2_277
*1308 FILLER_2_289
*1309 FILLER_2_29
*1310 FILLER_2_3
*1311 FILLER_2_301
*1312 FILLER_2_307
*1313 FILLER_2_309
*1314 FILLER_2_321
*1315 FILLER_2_333
*1316 FILLER_2_345
*1317 FILLER_2_357
*1318 FILLER_2_363
*1319 FILLER_2_365
*1320 FILLER_2_377
*1321 FILLER_2_389
*1322 FILLER_2_401
*1323 FILLER_2_41
*1324 FILLER_2_413
*1325 FILLER_2_419
*1326 FILLER_2_421
*1327 FILLER_2_433
*1328 FILLER_2_445
*1329 FILLER_2_457
*1330 FILLER_2_469
*1331 FILLER_2_475
*1332 FILLER_2_477
*1333 FILLER_2_489
*1334 FILLER_2_501
*1335 FILLER_2_513
*1336 FILLER_2_53
*1337 FILLER_2_65
*1338 FILLER_2_77
*1339 FILLER_2_83
*1340 FILLER_2_85
*1341 FILLER_2_97
*1342 FILLER_30_109
*1343 FILLER_30_121
*1344 FILLER_30_133
*1345 FILLER_30_139
*1346 FILLER_30_141
*1347 FILLER_30_15
*1348 FILLER_30_153
*1349 FILLER_30_165
*1350 FILLER_30_177
*1351 FILLER_30_189
*1352 FILLER_30_195
*1353 FILLER_30_197
*1354 FILLER_30_209
*1355 FILLER_30_221
*1356 FILLER_30_233
*1357 FILLER_30_245
*1358 FILLER_30_251
*1359 FILLER_30_253
*1360 FILLER_30_265
*1361 FILLER_30_27
*1362 FILLER_30_277
*1363 FILLER_30_289
*1364 FILLER_30_29
*1365 FILLER_30_3
*1366 FILLER_30_301
*1367 FILLER_30_307
*1368 FILLER_30_309
*1369 FILLER_30_321
*1370 FILLER_30_333
*1371 FILLER_30_345
*1372 FILLER_30_357
*1373 FILLER_30_363
*1374 FILLER_30_365
*1375 FILLER_30_377
*1376 FILLER_30_389
*1377 FILLER_30_401
*1378 FILLER_30_41
*1379 FILLER_30_413
*1380 FILLER_30_419
*1381 FILLER_30_421
*1382 FILLER_30_433
*1383 FILLER_30_445
*1384 FILLER_30_457
*1385 FILLER_30_469
*1386 FILLER_30_475
*1387 FILLER_30_477
*1388 FILLER_30_489
*1389 FILLER_30_501
*1390 FILLER_30_513
*1391 FILLER_30_53
*1392 FILLER_30_65
*1393 FILLER_30_77
*1394 FILLER_30_83
*1395 FILLER_30_85
*1396 FILLER_30_97
*1397 FILLER_31_105
*1398 FILLER_31_111
*1399 FILLER_31_113
*1400 FILLER_31_125
*1401 FILLER_31_137
*1402 FILLER_31_149
*1403 FILLER_31_15
*1404 FILLER_31_161
*1405 FILLER_31_167
*1406 FILLER_31_169
*1407 FILLER_31_181
*1408 FILLER_31_193
*1409 FILLER_31_205
*1410 FILLER_31_217
*1411 FILLER_31_223
*1412 FILLER_31_225
*1413 FILLER_31_237
*1414 FILLER_31_249
*1415 FILLER_31_261
*1416 FILLER_31_27
*1417 FILLER_31_273
*1418 FILLER_31_279
*1419 FILLER_31_281
*1420 FILLER_31_293
*1421 FILLER_31_3
*1422 FILLER_31_305
*1423 FILLER_31_317
*1424 FILLER_31_329
*1425 FILLER_31_335
*1426 FILLER_31_337
*1427 FILLER_31_349
*1428 FILLER_31_361
*1429 FILLER_31_373
*1430 FILLER_31_385
*1431 FILLER_31_39
*1432 FILLER_31_391
*1433 FILLER_31_393
*1434 FILLER_31_405
*1435 FILLER_31_417
*1436 FILLER_31_429
*1437 FILLER_31_441
*1438 FILLER_31_447
*1439 FILLER_31_449
*1440 FILLER_31_461
*1441 FILLER_31_473
*1442 FILLER_31_485
*1443 FILLER_31_497
*1444 FILLER_31_503
*1445 FILLER_31_505
*1446 FILLER_31_51
*1447 FILLER_31_513
*1448 FILLER_31_55
*1449 FILLER_31_57
*1450 FILLER_31_69
*1451 FILLER_31_81
*1452 FILLER_31_93
*1453 FILLER_32_109
*1454 FILLER_32_121
*1455 FILLER_32_133
*1456 FILLER_32_139
*1457 FILLER_32_141
*1458 FILLER_32_15
*1459 FILLER_32_153
*1460 FILLER_32_165
*1461 FILLER_32_177
*1462 FILLER_32_189
*1463 FILLER_32_195
*1464 FILLER_32_197
*1465 FILLER_32_209
*1466 FILLER_32_221
*1467 FILLER_32_233
*1468 FILLER_32_245
*1469 FILLER_32_251
*1470 FILLER_32_253
*1471 FILLER_32_265
*1472 FILLER_32_27
*1473 FILLER_32_277
*1474 FILLER_32_289
*1475 FILLER_32_29
*1476 FILLER_32_3
*1477 FILLER_32_301
*1478 FILLER_32_307
*1479 FILLER_32_309
*1480 FILLER_32_321
*1481 FILLER_32_333
*1482 FILLER_32_345
*1483 FILLER_32_357
*1484 FILLER_32_363
*1485 FILLER_32_365
*1486 FILLER_32_377
*1487 FILLER_32_389
*1488 FILLER_32_401
*1489 FILLER_32_41
*1490 FILLER_32_413
*1491 FILLER_32_419
*1492 FILLER_32_421
*1493 FILLER_32_433
*1494 FILLER_32_445
*1495 FILLER_32_457
*1496 FILLER_32_469
*1497 FILLER_32_475
*1498 FILLER_32_477
*1499 FILLER_32_489
*1500 FILLER_32_501
*1501 FILLER_32_513
*1502 FILLER_32_53
*1503 FILLER_32_65
*1504 FILLER_32_77
*1505 FILLER_32_83
*1506 FILLER_32_85
*1507 FILLER_32_97
*1508 FILLER_33_105
*1509 FILLER_33_111
*1510 FILLER_33_113
*1511 FILLER_33_125
*1512 FILLER_33_137
*1513 FILLER_33_149
*1514 FILLER_33_15
*1515 FILLER_33_161
*1516 FILLER_33_167
*1517 FILLER_33_169
*1518 FILLER_33_181
*1519 FILLER_33_193
*1520 FILLER_33_205
*1521 FILLER_33_217
*1522 FILLER_33_223
*1523 FILLER_33_225
*1524 FILLER_33_237
*1525 FILLER_33_249
*1526 FILLER_33_261
*1527 FILLER_33_27
*1528 FILLER_33_273
*1529 FILLER_33_279
*1530 FILLER_33_281
*1531 FILLER_33_293
*1532 FILLER_33_3
*1533 FILLER_33_305
*1534 FILLER_33_317
*1535 FILLER_33_329
*1536 FILLER_33_335
*1537 FILLER_33_337
*1538 FILLER_33_349
*1539 FILLER_33_361
*1540 FILLER_33_373
*1541 FILLER_33_385
*1542 FILLER_33_39
*1543 FILLER_33_391
*1544 FILLER_33_393
*1545 FILLER_33_405
*1546 FILLER_33_417
*1547 FILLER_33_429
*1548 FILLER_33_441
*1549 FILLER_33_447
*1550 FILLER_33_449
*1551 FILLER_33_461
*1552 FILLER_33_473
*1553 FILLER_33_485
*1554 FILLER_33_497
*1555 FILLER_33_503
*1556 FILLER_33_505
*1557 FILLER_33_51
*1558 FILLER_33_513
*1559 FILLER_33_55
*1560 FILLER_33_57
*1561 FILLER_33_69
*1562 FILLER_33_81
*1563 FILLER_33_93
*1564 FILLER_34_109
*1565 FILLER_34_121
*1566 FILLER_34_133
*1567 FILLER_34_139
*1568 FILLER_34_141
*1569 FILLER_34_15
*1570 FILLER_34_153
*1571 FILLER_34_165
*1572 FILLER_34_177
*1573 FILLER_34_189
*1574 FILLER_34_195
*1575 FILLER_34_197
*1576 FILLER_34_209
*1577 FILLER_34_221
*1578 FILLER_34_233
*1579 FILLER_34_245
*1580 FILLER_34_251
*1581 FILLER_34_253
*1582 FILLER_34_265
*1583 FILLER_34_27
*1584 FILLER_34_277