*SPEF "ieee 1481-1999"
*DESIGN "spi_device"
*DATE "11:11:11 Fri 11 11, 1111"
*VENDOR "OpenRCX"
*PROGRAM "Parallel Extraction"
*VERSION "1.0"
*DESIGN_FLOW "NAME_SCOPE LOCAL" "PIN_CAP NONE"
*DIVIDER /
*DELIMITER :
*BUS_DELIMITER []
*T_UNIT 1 NS
*C_UNIT 1 PF
*R_UNIT 1 OHM
*L_UNIT 1 HENRY

*NAME_MAP
*1 reg_addr[0]
*2 reg_addr[1]
*3 reg_addr[2]
*4 reg_bus
*5 reg_clk
*6 reg_dir
*7 spi_clk
*8 spi_miso
*9 spi_mosi
*10 spi_sel
*13 _00_
*14 _01_
*15 _02_
*16 _03_
*17 _04_
*18 _05_
*19 _06_
*20 _07_
*21 _08_
*22 _09_
*23 _10_
*24 _11_
*25 _12_
*26 _13_
*27 _14_
*28 _15_
*29 _16_
*30 _17_
*31 _18_
*32 _19_
*33 _20_
*34 _21_
*35 _22_
*36 _23_
*37 _24_
*38 _25_
*39 _26_
*40 _27_
*41 _28_
*42 _29_
*43 _30_
*44 _31_
*45 clknet_0_spi_clk
*46 clknet_1_0__leaf_spi_clk
*47 clknet_1_1__leaf_spi_clk
*48 net1
*49 net2
*50 net3
*51 net4
*52 net5
*53 net6
*54 net7
*55 net8
*56 next_state\[0\]
*57 next_state\[1\]
*58 pres_state\[0\]
*59 pres_state\[1\]
*60 t\[0\]
*61 t\[1\]
*62 t\[2\]
*63 ANTENNA_clkbuf_0_spi_clk_A
*64 ANTENNA_input1_A
*65 ANTENNA_input2_A
*66 FILLER_0_109
*67 FILLER_0_113
*68 FILLER_0_125
*69 FILLER_0_137
*70 FILLER_0_141
*71 FILLER_0_153
*72 FILLER_0_165
*73 FILLER_0_21
*74 FILLER_0_27
*75 FILLER_0_29
*76 FILLER_0_3
*77 FILLER_0_41
*78 FILLER_0_53
*79 FILLER_0_57
*80 FILLER_0_69
*81 FILLER_0_81
*82 FILLER_0_85
*83 FILLER_0_9
*84 FILLER_0_97
*85 FILLER_10_109
*86 FILLER_10_121
*87 FILLER_10_133
*88 FILLER_10_139
*89 FILLER_10_141
*90 FILLER_10_15
*91 FILLER_10_153
*92 FILLER_10_165
*93 FILLER_10_27
*94 FILLER_10_29
*95 FILLER_10_3
*96 FILLER_10_41
*97 FILLER_10_53
*98 FILLER_10_65
*99 FILLER_10_77
*100 FILLER_10_83
*101 FILLER_10_85
*102 FILLER_10_97
*103 FILLER_11_105
*104 FILLER_11_111
*105 FILLER_11_113
*106 FILLER_11_125
*107 FILLER_11_137
*108 FILLER_11_149
*109 FILLER_11_15
*110 FILLER_11_161
*111 FILLER_11_167
*112 FILLER_11_27
*113 FILLER_11_3
*114 FILLER_11_39
*115 FILLER_11_51
*116 FILLER_11_55
*117 FILLER_11_57
*118 FILLER_11_69
*119 FILLER_11_81
*120 FILLER_11_93
*121 FILLER_12_109
*122 FILLER_12_11
*123 FILLER_12_121
*124 FILLER_12_133
*125 FILLER_12_139
*126 FILLER_12_141
*127 FILLER_12_153
*128 FILLER_12_165
*129 FILLER_12_23
*130 FILLER_12_27
*131 FILLER_12_29
*132 FILLER_12_3
*133 FILLER_12_41
*134 FILLER_12_53
*135 FILLER_12_65
*136 FILLER_12_7
*137 FILLER_12_77
*138 FILLER_12_83
*139 FILLER_12_85
*140 FILLER_12_97
*141 FILLER_13_105
*142 FILLER_13_11
*143 FILLER_13_111
*144 FILLER_13_113
*145 FILLER_13_125
*146 FILLER_13_137
*147 FILLER_13_149
*148 FILLER_13_15
*149 FILLER_13_161
*150 FILLER_13_167
*151 FILLER_13_23
*152 FILLER_13_3
*153 FILLER_13_33
*154 FILLER_13_45
*155 FILLER_13_53
*156 FILLER_13_57
*157 FILLER_13_69
*158 FILLER_13_81
*159 FILLER_13_93
*160 FILLER_14_109
*161 FILLER_14_121
*162 FILLER_14_133
*163 FILLER_14_139
*164 FILLER_14_141
*165 FILLER_14_153
*166 FILLER_14_165
*167 FILLER_14_21
*168 FILLER_14_27
*169 FILLER_14_29
*170 FILLER_14_3
*171 FILLER_14_38
*172 FILLER_14_50
*173 FILLER_14_62
*174 FILLER_14_72
*175 FILLER_14_85
*176 FILLER_14_9
*177 FILLER_14_97
*178 FILLER_15_101
*179 FILLER_15_109
*180 FILLER_15_113
*181 FILLER_15_125
*182 FILLER_15_137
*183 FILLER_15_14
*184 FILLER_15_149
*185 FILLER_15_161
*186 FILLER_15_167
*187 FILLER_15_20
*188 FILLER_15_3
*189 FILLER_15_34
*190 FILLER_15_49
*191 FILLER_15_55
*192 FILLER_15_57
*193 FILLER_15_65
*194 FILLER_15_77
*195 FILLER_15_89
*196 FILLER_16_109
*197 FILLER_16_121
*198 FILLER_16_133
*199 FILLER_16_139
*200 FILLER_16_141
*201 FILLER_16_15
*202 FILLER_16_153
*203 FILLER_16_165
*204 FILLER_16_19
*205 FILLER_16_26
*206 FILLER_16_29
*207 FILLER_16_3
*208 FILLER_16_44
*209 FILLER_16_54
*210 FILLER_16_66
*211 FILLER_16_78
*212 FILLER_16_85
*213 FILLER_16_9
*214 FILLER_16_97
*215 FILLER_17_105
*216 FILLER_17_111
*217 FILLER_17_113
*218 FILLER_17_125
*219 FILLER_17_137
*220 FILLER_17_149
*221 FILLER_17_161
*222 FILLER_17_167
*223 FILLER_17_17
*224 FILLER_17_3
*225 FILLER_17_33
*226 FILLER_17_41
*227 FILLER_17_51
*228 FILLER_17_55
*229 FILLER_17_57
*230 FILLER_17_63
*231 FILLER_17_75
*232 FILLER_17_93
*233 FILLER_18_109
*234 FILLER_18_121
*235 FILLER_18_133
*236 FILLER_18_139
*237 FILLER_18_141
*238 FILLER_18_153
*239 FILLER_18_165
*240 FILLER_18_25
*241 FILLER_18_29
*242 FILLER_18_3
*243 FILLER_18_34
*244 FILLER_18_41
*245 FILLER_18_53
*246 FILLER_18_62
*247 FILLER_18_74
*248 FILLER_18_81
*249 FILLER_18_85
*250 FILLER_18_97
*251 FILLER_19_102
*252 FILLER_19_110
*253 FILLER_19_113
*254 FILLER_19_12
*255 FILLER_19_125
*256 FILLER_19_137
*257 FILLER_19_149
*258 FILLER_19_161
*259 FILLER_19_167
*260 FILLER_19_3
*261 FILLER_19_36
*262 FILLER_19_49
*263 FILLER_19_55
*264 FILLER_19_57
*265 FILLER_19_66
*266 FILLER_19_78
*267 FILLER_19_90
*268 FILLER_1_105
*269 FILLER_1_111
*270 FILLER_1_113
*271 FILLER_1_125
*272 FILLER_1_137
*273 FILLER_1_149
*274 FILLER_1_15
*275 FILLER_1_161
*276 FILLER_1_167
*277 FILLER_1_27
*278 FILLER_1_3
*279 FILLER_1_39
*280 FILLER_1_51
*281 FILLER_1_55
*282 FILLER_1_57
*283 FILLER_1_69
*284 FILLER_1_81
*285 FILLER_1_93
*286 FILLER_20_109
*287 FILLER_20_121
*288 FILLER_20_133
*289 FILLER_20_139
*290 FILLER_20_141
*291 FILLER_20_153
*292 FILLER_20_165
*293 FILLER_20_25
*294 FILLER_20_29
*295 FILLER_20_3
*296 FILLER_20_51
*297 FILLER_20_58
*298 FILLER_20_62
*299 FILLER_20_70
*300 FILLER_20_82
*301 FILLER_20_85
*302 FILLER_20_97
*303 FILLER_21_104
*304 FILLER_21_113
*305 FILLER_21_125
*306 FILLER_21_13
*307 FILLER_21_137
*308 FILLER_21_149
*309 FILLER_21_161
*310 FILLER_21_167
*311 FILLER_21_21
*312 FILLER_21_3
*313 FILLER_21_43
*314 FILLER_21_47
*315 FILLER_21_54
*316 FILLER_21_57
*317 FILLER_21_61
*318 FILLER_21_68
*319 FILLER_21_80
*320 FILLER_21_92
*321 FILLER_22_109
*322 FILLER_22_121
*323 FILLER_22_133
*324 FILLER_22_139
*325 FILLER_22_141
*326 FILLER_22_153
*327 FILLER_22_165
*328 FILLER_22_26
*329 FILLER_22_29
*330 FILLER_22_3
*331 FILLER_22_52
*332 FILLER_22_68
*333 FILLER_22_78
*334 FILLER_22_85
*335 FILLER_22_97
*336 FILLER_23_102
*337 FILLER_23_110
*338 FILLER_23_113
*339 FILLER_23_125
*340 FILLER_23_137
*341 FILLER_23_149
*342 FILLER_23_161
*343 FILLER_23_167
*344 FILLER_23_17
*345 FILLER_23_3
*346 FILLER_23_44
*347 FILLER_23_54
*348 FILLER_23_57
*349 FILLER_23_61
*350 FILLER_23_65
*351 FILLER_23_78
*352 FILLER_23_90
*353 FILLER_24_10
*354 FILLER_24_101
*355 FILLER_24_106
*356 FILLER_24_113
*357 FILLER_24_125
*358 FILLER_24_137
*359 FILLER_24_141
*360 FILLER_24_153
*361 FILLER_24_161
*362 FILLER_24_166
*363 FILLER_24_17
*364 FILLER_24_24
*365 FILLER_24_29
*366 FILLER_24_3
*367 FILLER_24_33
*368 FILLER_24_38
*369 FILLER_24_54
*370 FILLER_24_57
*371 FILLER_24_62
*372 FILLER_24_74
*373 FILLER_24_82
*374 FILLER_24_85
*375 FILLER_24_97
*376 FILLER_2_109
*377 FILLER_2_121
*378 FILLER_2_133
*379 FILLER_2_139
*380 FILLER_2_141
*381 FILLER_2_15
*382 FILLER_2_153
*383 FILLER_2_165
*384 FILLER_2_27
*385 FILLER_2_29
*386 FILLER_2_3
*387 FILLER_2_41
*388 FILLER_2_53
*389 FILLER_2_65
*390 FILLER_2_77
*391 FILLER_2_83
*392 FILLER_2_85
*393 FILLER_2_97
*394 FILLER_3_105
*395 FILLER_3_111
*396 FILLER_3_113
*397 FILLER_3_125
*398 FILLER_3_137
*399 FILLER_3_149
*400 FILLER_3_15
*401 FILLER_3_161
*402 FILLER_3_167
*403 FILLER_3_27
*404 FILLER_3_3
*405 FILLER_3_39
*406 FILLER_3_51
*407 FILLER_3_55
*408 FILLER_3_57
*409 FILLER_3_69
*410 FILLER_3_81
*411 FILLER_3_93
*412 FILLER_4_109
*413 FILLER_4_121
*414 FILLER_4_133
*415 FILLER_4_139
*416 FILLER_4_141
*417 FILLER_4_15
*418 FILLER_4_153
*419 FILLER_4_165
*420 FILLER_4_27
*421 FILLER_4_29
*422 FILLER_4_3
*423 FILLER_4_41
*424 FILLER_4_53
*425 FILLER_4_65
*426 FILLER_4_77
*427 FILLER_4_83
*428 FILLER_4_85
*429 FILLER_4_97
*430 FILLER_5_105
*431 FILLER_5_111
*432 FILLER_5_113
*433 FILLER_5_125
*434 FILLER_5_137
*435 FILLER_5_149
*436 FILLER_5_15
*437 FILLER_5_161
*438 FILLER_5_167
*439 FILLER_5_27
*440 FILLER_5_3
*441 FILLER_5_39
*442 FILLER_5_51
*443 FILLER_5_55
*444 FILLER_5_57
*445 FILLER_5_69
*446 FILLER_5_81
*447 FILLER_5_93
*448 FILLER_6_109
*449 FILLER_6_121
*450 FILLER_6_133
*451 FILLER_6_139
*452 FILLER_6_141
*453 FILLER_6_15
*454 FILLER_6_153
*455 FILLER_6_165
*456 FILLER_6_27
*457 FILLER_6_29
*458 FILLER_6_3
*459 FILLER_6_41
*460 FILLER_6_53
*461 FILLER_6_65
*462 FILLER_6_77
*463 FILLER_6_83
*464 FILLER_6_85
*465 FILLER_6_97
*466 FILLER_7_105
*467 FILLER_7_111
*468 FILLER_7_113
*469 FILLER_7_125
*470 FILLER_7_137
*471 FILLER_7_149
*472 FILLER_7_15
*473 FILLER_7_161
*474 FILLER_7_167
*475 FILLER_7_27
*476 FILLER_7_3
*477 FILLER_7_39
*478 FILLER_7_51
*479 FILLER_7_55
*480 FILLER_7_57
*481 FILLER_7_69
*482 FILLER_7_81
*483 FILLER_7_93
*484 FILLER_8_109
*485 FILLER_8_121
*486 FILLER_8_133
*487 FILLER_8_139
*488 FILLER_8_14
*489 FILLER_8_141
*490 FILLER_8_153
*491 FILLER_8_165
*492 FILLER_8_26
*493 FILLER_8_29
*494 FILLER_8_3
*495 FILLER_8_41
*496 FILLER_8_53
*497 FILLER_8_65
*498 FILLER_8_77
*499 FILLER_8_8
*500 FILLER_8_83
*501 FILLER_8_85
*502 FILLER_8_97
*503 FILLER_9_105
*504 FILLER_9_111
*505 FILLER_9_113
*506 FILLER_9_125
*507 FILLER_9_137
*508 FILLER_9_149
*509 FILLER_9_15
*510 FILLER_9_161
*511 FILLER_9_167
*512 FILLER_9_27
*513 FILLER_9_3
*514 FILLER_9_39
*515 FILLER_9_51
*516 FILLER_9_55
*517 FILLER_9_57
*518 FILLER_9_69
*519 FILLER_9_81
*520 FILLER_9_93
*521 PHY_0
*522 PHY_1
*523 PHY_10
*524 PHY_11
*525 PHY_12
*526 PHY_13
*527 PHY_14
*528 PHY_15
*529 PHY_16
*530 PHY_17
*531 PHY_18
*532 PHY_19
*533 PHY_2
*534 PHY_20
*535 PHY_21
*536 PHY_22
*537 PHY_23
*538 PHY_24
*539 PHY_25
*540 PHY_26
*541 PHY_27
*542 PHY_28
*543 PHY_29
*544 PHY_3
*545 PHY_30
*546 PHY_31
*547 PHY_32
*548 PHY_33
*549 PHY_34
*550 PHY_35
*551 PHY_36
*552 PHY_37
*553 PHY_38
*554 PHY_39
*555 PHY_4
*556 PHY_40
*557 PHY_41
*558 PHY_42
*559 PHY_43
*560 PHY_44
*561 PHY_45
*562 PHY_46
*563 PHY_47
*564 PHY_48
*565 PHY_49
*566 PHY_5
*567 PHY_6
*568 PHY_7
*569 PHY_8
*570 PHY_9
*571 TAP_100
*572 TAP_101
*573 TAP_102
*574 TAP_103
*575 TAP_104
*576 TAP_105
*577 TAP_106
*578 TAP_107
*579 TAP_108
*580 TAP_109
*581 TAP_110
*582 TAP_111
*583 TAP_112
*584 TAP_113
*585 TAP_114
*586 TAP_115
*587 TAP_116
*588 TAP_50
*589 TAP_51
*590 TAP_52
*591 TAP_53
*592 TAP_54
*593 TAP_55
*594 TAP_56
*595 TAP_57
*596 TAP_58
*597 TAP_59
*598 TAP_60
*599 TAP_61
*600 TAP_62
*601 TAP_63
*602 TAP_64
*603 TAP_65
*604 TAP_66
*605 TAP_67
*606 TAP_68
*607 TAP_69
*608 TAP_70
*609 TAP_71
*610 TAP_72
*611 TAP_73
*612 TAP_74
*613 TAP_75
*614 TAP_76
*615 TAP_77
*616 TAP_78
*617 TAP_79
*618 TAP_80
*619 TAP_81
*620 TAP_82
*621 TAP_83
*622 TAP_84
*623 TAP_85
*624 TAP_86
*625 TAP_87
*626 TAP_88
*627 TAP_89
*628 TAP_90
*629 TAP_91
*630 TAP_92
*631 TAP_93
*632 TAP_94
*633 TAP_95
*634 TAP_96
*635 TAP_97
*636 TAP_98
*637 TAP_99
*638 _32_
*639 _33_
*640 _34_
*641 _35_
*642 _36_
*643 _37_
*644 _38_
*645 _39_
*646 _40_
*647 _41_
*648 _42_
*649 _43_
*650 _44_
*651 _45_
*652 _46_
*653 _47_
*654 _48_
*655 _49_
*656 _50_
*657 _51_
*658 _52_
*659 _53_
*660 _54_
*661 _55_
*662 _56_
*663 _57_
*664 _58_
*665 _59_
*666 _60_
*667 _61_
*668 _62_
*669 _63_
*670 _64_
*671 _65_
*672 _66_
*673 _67_
*674 _68_
*675 _69_
*676 _70_
*677 _71_
*678 _72_
*679 _73_
*680 _74_
*681 _75_
*682 _76_
*683 _77_
*684 clkbuf_0_spi_clk
*685 clkbuf_1_0__f_spi_clk
*686 clkbuf_1_1__f_spi_clk
*687 input1
*688 input2
*689 output3
*690 output4
*691 output5
*692 output6
*693 output7
*694 output8

*PORTS
reg_addr[0] O
reg_addr[1] O
reg_addr[2] O
reg_bus I
reg_clk O
reg_dir O
spi_clk I
spi_miso O
spi_mosi I
spi_sel I

*D_NET *1 0.000956539
*CONN
*P reg_addr[0] O
*I *689:X O *D sky130_fd_sc_hd__buf_2
*CAP
1 reg_addr[0] 0.00045012
2 *689:X 0.00045012
3 reg_addr[0] *53:13 5.62995e-05
*RES
1 *689:X reg_addr[0] 22.2464 
*END

*D_NET *2 0.00101768
*CONN
*P reg_addr[1] O
*I *690:X O *D sky130_fd_sc_hd__buf_2
*CAP
1 reg_addr[1] 0.000489431
2 *690:X 0.000489431
3 reg_addr[1] *53:17 3.88139e-05
*RES
1 *690:X reg_addr[1] 22.6571 
*END

*D_NET *3 0.000894833
*CONN
*P reg_addr[2] O
*I *691:X O *D sky130_fd_sc_hd__buf_2
*CAP
1 reg_addr[2] 0.000447417
2 *691:X 0.000447417
*RES
1 *691:X reg_addr[2] 22.6571 
*END

*D_NET *4 0.0120526
*CONN
*P reg_bus I
*I *679:D I *D sky130_fd_sc_hd__dlxtn_1
*I *680:Q O *D sky130_fd_sc_hd__dlxtn_2
*CAP
1 reg_bus 0.00144438
2 *679:D 0.000651225
3 *680:Q 0
4 *4:19 0.00492663
5 *4:4 0.00413348
6 *679:D *666:A 0.000151333
7 *679:D *678:D 0.000151333
8 *679:D *20:13 9.60875e-05
9 *4:19 *658:B1 0.000178134
10 *4:19 *680:D 9.76946e-05
11 *4:19 *680:GATE_N 8.136e-05
12 *4:19 *16:11 0.000140933
*RES
1 *680:Q *4:4 9.3 
2 *4:4 *679:D 28.2554 
3 *4:4 *4:19 46.1518 
4 *4:19 reg_bus 26.9286 
*END

*D_NET *5 0.000812096
*CONN
*P reg_clk O
*I *692:X O *D sky130_fd_sc_hd__buf_2
*CAP
1 reg_clk 0.000406048
2 *692:X 0.000406048
*RES
1 *692:X reg_clk 21.8357 
*END

*D_NET *6 0.000946218
*CONN
*P reg_dir O
*I *693:X O *D sky130_fd_sc_hd__buf_2
*CAP
1 reg_dir 0.000473109
2 *693:X 0.000473109
*RES
1 *693:X reg_dir 22.2464 
*END

*D_NET *7 0.00572714
*CONN
*P spi_clk I
*I *63:DIODE I *D sky130_fd_sc_hd__diode_2
*I *684:A I *D sky130_fd_sc_hd__clkbuf_16
*CAP
1 spi_clk 0.000898983
2 *63:DIODE 0.00111376
3 *684:A 0.000276032
4 *7:8 0.00228878
5 *63:DIODE *673:GATE_N 0.000269428
6 *63:DIODE *678:CLK 7.37494e-05
7 *63:DIODE *678:RESET_B 0.000122826
8 *63:DIODE *681:D 6.35374e-05
9 *63:DIODE *20:13 6.23012e-05
10 *63:DIODE *59:7 0.000354907
11 *684:A *678:CLK 0.000154762
12 *7:8 *678:CLK 4.80729e-05
13 *7:8 *49:36 0
14 *7:8 *53:13 0
*RES
1 spi_clk *7:8 9.35028 
2 *7:8 *684:A 18.7464 
3 *7:8 *63:DIODE 31.3179 
*END

*D_NET *8 0.000658389
*CONN
*P spi_miso O
*I *694:X O *D sky130_fd_sc_hd__buf_2
*CAP
1 spi_miso 0.000329194
2 *694:X 0.000329194
*RES
1 *694:X spi_miso 18.4111 
*END

*D_NET *9 0.0010506
*CONN
*P spi_mosi I
*I *64:DIODE I *D sky130_fd_sc_hd__diode_2
*I *687:A I *D sky130_fd_sc_hd__clkbuf_1
*CAP
1 spi_mosi 0.000276429
2 *64:DIODE 0.000122927
3 *687:A 0
4 *9:11 0.000399356
5 *64:DIODE *48:10 0.000232399
6 *9:11 *55:8 1.94879e-05
*RES
1 spi_mosi *9:11 9.43063 
2 *9:11 *687:A 9.3 
3 *9:11 *64:DIODE 12.3 
*END

*D_NET *10 0.00167286
*CONN
*P spi_sel I
*I *688:A I *D sky130_fd_sc_hd__clkbuf_2
*I *65:DIODE I *D sky130_fd_sc_hd__diode_2
*CAP
1 spi_sel 0.000294918
2 *688:A 0
3 *65:DIODE 0.000430516
4 *10:10 0.000725434
5 *65:DIODE *655:A 9.71197e-05
6 *65:DIODE *678:D 2.51343e-06
7 *65:DIODE *679:GATE_N 5.33882e-05
8 *10:10 *49:6 2.34337e-05
9 *10:10 *55:8 4.5534e-05
*RES
1 spi_sel *10:10 9.34262 
2 *10:10 *65:DIODE 25.1214 
3 *10:10 *688:A 9.3 
*END

*D_NET *13 0.00443681
*CONN
*I *681:D I *D sky130_fd_sc_hd__dlxtn_1
*I *662:X O *D sky130_fd_sc_hd__buf_1
*CAP
1 *681:D 0.00147819
2 *662:X 0.00147819
3 *681:D *673:D 6.05161e-06
4 *681:D *673:GATE_N 4.33174e-05
5 *681:D *678:RESET_B 0.000828765
6 *681:D *683:GATE_N 0
7 *681:D *20:13 0.000499477
8 *681:D *42:16 3.92854e-05
9 *63:DIODE *681:D 6.35374e-05
*RES
1 *662:X *681:D 48.3857 
*END

*D_NET *14 0.00711817
*CONN
*I *682:D I *D sky130_fd_sc_hd__dlxtn_1
*I *683:D I *D sky130_fd_sc_hd__dlxtn_1
*I *673:D I *D sky130_fd_sc_hd__dlxtn_1
*I *672:D I *D sky130_fd_sc_hd__dlxtn_1
*I *664:X O *D sky130_fd_sc_hd__clkbuf_1
*CAP
1 *682:D 0.000792021
2 *683:D 0.000513914
3 *673:D 0.0001982
4 *672:D 0
5 *664:X 0.000419872
6 *14:25 0.000812374
7 *14:18 0.000667078
8 *14:9 0.00177871
9 *673:D *673:GATE_N 0.000313474
10 *682:D *638:A 5.23057e-05
11 *682:D *30:5 2.32517e-05
12 *683:D *640:A1 0
13 *683:D *678:RESET_B 2.95076e-06
14 *683:D *683:GATE_N 5.06144e-05
15 *683:D *42:16 8.23597e-06
16 *14:9 *638:A 6.79057e-05
17 *14:9 *645:A_N 0
18 *14:9 *658:A2 4.87854e-05
19 *14:9 *660:A1_N 3.34366e-05
20 *14:9 *680:GATE_N 0.000128154
21 *14:9 *16:11 6.09256e-05
22 *14:9 *30:82 0
23 *14:9 *37:19 5.33433e-05
24 *14:18 *647:B 0.00015304
25 *14:18 *671:A 0.000150618
26 *14:18 *678:RESET_B 0.000100668
27 *14:18 *16:11 0
28 *14:18 *42:16 2.39876e-05
29 *14:18 *59:45 0
30 *14:18 *59:47 0
31 *14:18 *61:8 9.00763e-05
32 *14:18 *61:10 0.00023331
33 *14:18 *61:14 9.25014e-06
34 *14:18 *62:24 0.000140933
35 *14:25 *678:RESET_B 7.22627e-05
36 *14:25 *42:16 0.000112422
37 *681:D *673:D 6.05161e-06
*RES
1 *664:X *14:9 26.3893 
2 *14:9 *14:18 26.6429 
3 *14:18 *672:D 13.8 
4 *14:18 *14:25 2.85714 
5 *14:25 *673:D 18.0321 
6 *14:25 *683:D 23.6906 
7 *14:9 *682:D 21.3536 
*END

*D_NET *15 0.00154555
*CONN
*I *674:D I *D sky130_fd_sc_hd__dfrtp_2
*I *656:X O *D sky130_fd_sc_hd__o21ba_1
*CAP
1 *674:D 0.000218245
2 *656:X 0.000218245
3 *674:D *666:A 8.00806e-05
4 *674:D *678:D 0.000698205
5 *674:D *20:13 0.000330777
*RES
1 *656:X *674:D 36.5286 
*END

*D_NET *16 0.00352046
*CONN
*I *675:D I *D sky130_fd_sc_hd__dfrtp_2
*I *658:X O *D sky130_fd_sc_hd__o21a_1
*CAP
1 *675:D 0
2 *658:X 0.00112939
3 *16:11 0.00112939
4 *16:11 *642:A1 5.58875e-06
5 *16:11 *650:A1 1.01912e-05
6 *16:11 *650:A2 6.2556e-05
7 *16:11 *650:B1 0.000170304
8 *16:11 *658:A2 0.000144038
9 *16:11 *658:B1 2.27416e-05
10 *16:11 *659:B1_N 0.000173804
11 *16:11 *660:A1_N 0
12 *16:11 *671:A 0
13 *16:11 *675:RESET_B 0.00011888
14 *16:11 *678:RESET_B 0
15 *16:11 *680:GATE_N 2.59355e-05
16 *16:11 *683:GATE_N 8.51842e-05
17 *16:11 *59:28 6.05161e-06
18 *16:11 *59:47 0
19 *16:11 *61:8 1.58163e-05
20 *16:11 *62:6 0.000218726
21 *4:19 *16:11 0.000140933
22 *14:9 *16:11 6.09256e-05
23 *14:18 *16:11 0
*RES
1 *658:X *16:11 41.1571 
2 *16:11 *675:D 9.3 
*END

*D_NET *17 0.00195034
*CONN
*I *676:D I *D sky130_fd_sc_hd__dfrtp_1
*I *660:X O *D sky130_fd_sc_hd__o2bb2a_1
*CAP
1 *676:D 0.000455002
2 *660:X 0.000455002
3 *676:D *656:B1_N 0.000400636
4 *676:D *674:RESET_B 0.0004863
5 *676:D *677:D 0.000153395
6 *676:D *58:18 0
*RES
1 *660:X *676:D 37.6179 
*END

*D_NET *18 0.00188161
*CONN
*I *679:GATE_N I *D sky130_fd_sc_hd__dlxtn_1
*I *644:X O *D sky130_fd_sc_hd__clkbuf_1
*CAP
1 *679:GATE_N 0.000754018
2 *644:X 0.000754018
3 *679:GATE_N *644:A 0
4 *679:GATE_N *655:A 0.000320184
5 *679:GATE_N *661:B 0
6 *679:GATE_N *666:A 0
7 *679:GATE_N *678:D 0
8 *65:DIODE *679:GATE_N 5.33882e-05
*RES
1 *644:X *679:GATE_N 41.5464 
*END

*D_NET *19 0.00156849
*CONN
*I *680:GATE_N I *D sky130_fd_sc_hd__dlxtn_2
*I *645:Y O *D sky130_fd_sc_hd__nand3b_1
*CAP
1 *680:GATE_N 0.000502862
2 *645:Y 0.000502862
3 *680:GATE_N *645:A_N 0.000274294
4 *680:GATE_N *54:23 5.30209e-05
5 *4:19 *680:GATE_N 8.136e-05
6 *14:9 *680:GATE_N 0.000128154
7 *16:11 *680:GATE_N 2.59355e-05
*RES
1 *645:Y *680:GATE_N 36.0643 
*END

*D_NET *20 0.0040732
*CONN
*I *681:GATE_N I *D sky130_fd_sc_hd__dlxtn_1
*I *666:X O *D sky130_fd_sc_hd__clkbuf_1
*CAP
1 *681:GATE_N 0
2 *666:X 0.000698708
3 *20:13 0.000698708
4 *20:13 *666:A 0.000322309
5 *20:13 *675:RESET_B 0.000299981
6 *20:13 *676:RESET_B 7.83659e-05
7 *20:13 *678:CLK 9.56233e-05
8 *20:13 *678:D 0.000189866
9 *20:13 *693:A 0.000700996
10 *63:DIODE *20:13 6.23012e-05
11 *674:D *20:13 0.000330777
12 *679:D *20:13 9.60875e-05
13 *681:D *20:13 0.000499477
*RES
1 *666:X *20:13 42.2643 
2 *20:13 *681:GATE_N 9.3 
*END

*D_NET *21 0.000325476
*CONN
*I *682:GATE_N I *D sky130_fd_sc_hd__dlxtn_1
*I *648:X O *D sky130_fd_sc_hd__clkbuf_1
*CAP
1 *682:GATE_N 0.000162738
2 *648:X 0.000162738
*RES
1 *648:X *682:GATE_N 29.7786 
*END

*D_NET *22 0.000945198
*CONN
*I *683:GATE_N I *D sky130_fd_sc_hd__dlxtn_1
*I *650:X O *D sky130_fd_sc_hd__a21o_1
*CAP
1 *683:GATE_N 0.000294972
2 *650:X 0.000294972
3 *683:GATE_N *650:B1 1.50181e-05
4 *683:GATE_N *678:RESET_B 0.000126971
5 *683:GATE_N *42:16 0
6 *683:GATE_N *59:10 6.75868e-05
7 *683:GATE_N *59:28 9.87983e-06
8 *681:D *683:GATE_N 0
9 *683:D *683:GATE_N 5.06144e-05
10 *16:11 *683:GATE_N 8.51842e-05
*RES
1 *650:X *683:GATE_N 34.4036 
*END

*D_NET *23 0.00139624
*CONN
*I *672:GATE_N I *D sky130_fd_sc_hd__dlxtn_1
*I *640:X O *D sky130_fd_sc_hd__a21o_1
*CAP
1 *672:GATE_N 0.00046558
2 *640:X 0.00046558
3 *672:GATE_N *640:B1 0.000218725
4 *672:GATE_N *59:28 6.45627e-05
5 *672:GATE_N *61:8 0.000181796
*RES
1 *640:X *672:GATE_N 27.7786 
*END

*D_NET *24 0.00106712
*CONN
*I *673:GATE_N I *D sky130_fd_sc_hd__dlxtn_1
*I *642:X O *D sky130_fd_sc_hd__a21o_1
*CAP
1 *673:GATE_N 0.000183047
2 *642:X 0.000183047
3 *673:GATE_N *678:RESET_B 7.48091e-05
4 *63:DIODE *673:GATE_N 0.000269428
5 *673:D *673:GATE_N 0.000313474
6 *681:D *673:GATE_N 4.33174e-05
*RES
1 *642:X *673:GATE_N 24.0643 
*END

*D_NET *25 0.0055937
*CONN
*I *674:RESET_B I *D sky130_fd_sc_hd__dfrtp_2
*I *667:Y O *D sky130_fd_sc_hd__inv_2
*CAP
1 *674:RESET_B 0.00127713
2 *667:Y 0.00127713
3 *674:RESET_B *643:B 0
4 *674:RESET_B *652:A 0.000390561
5 *674:RESET_B *675:CLK 3.43988e-06
6 *674:RESET_B *677:D 3.47468e-05
7 *674:RESET_B *680:D 0.000308351
8 *674:RESET_B *30:21 8.08022e-05
9 *674:RESET_B *30:28 0.000175519
10 *674:RESET_B *30:39 0.000617022
11 *674:RESET_B *48:10 9.25014e-06
12 *674:RESET_B *58:18 0
13 *674:RESET_B *58:20 0
14 *674:RESET_B *59:52 0.00010096
15 *674:RESET_B *59:56 0.000832496
16 *676:D *674:RESET_B 0.0004863
*RES
1 *667:Y *674:RESET_B 45.925 
*END

*D_NET *26 0.00288502
*CONN
*I *675:RESET_B I *D sky130_fd_sc_hd__dfrtp_2
*I *668:Y O *D sky130_fd_sc_hd__inv_2
*CAP
1 *675:RESET_B 0.00074449
2 *668:Y 0.00074449
3 *675:RESET_B *670:A 0.000358927
4 *675:RESET_B *675:CLK 2.89114e-05
5 *675:RESET_B *677:RESET_B 5.49489e-05
6 *675:RESET_B *693:A 0.000415462
7 *675:RESET_B *53:13 0.000118928
8 *16:11 *675:RESET_B 0.00011888
9 *20:13 *675:RESET_B 0.000299981
*RES
1 *668:Y *675:RESET_B 34.1839 
*END

*D_NET *27 0.00296891
*CONN
*I *676:RESET_B I *D sky130_fd_sc_hd__dfrtp_1
*I *669:Y O *D sky130_fd_sc_hd__inv_2
*CAP
1 *676:RESET_B 0.00095113
2 *669:Y 0.00095113
3 *676:RESET_B *671:A 0.000489638
4 *676:RESET_B *676:CLK 2.89114e-05
5 *676:RESET_B *693:A 7.6644e-05
6 *676:RESET_B *45:9 0.000222666
7 *676:RESET_B *49:31 2.44318e-05
8 *676:RESET_B *58:11 0.000145997
9 *20:13 *676:RESET_B 7.83659e-05
*RES
1 *669:Y *676:RESET_B 31.9875 
*END

*D_NET *28 0.00190576
*CONN
*I *677:RESET_B I *D sky130_fd_sc_hd__dfrtp_1
*I *670:Y O *D sky130_fd_sc_hd__inv_2
*CAP
1 *677:RESET_B 0.000608552
2 *670:Y 0.000608552
3 *677:RESET_B *677:D 4.84658e-05
4 *677:RESET_B *678:CLK 0
5 *677:RESET_B *678:D 0.000585247
6 *677:RESET_B *49:36 0
7 *675:RESET_B *677:RESET_B 5.49489e-05
*RES
1 *670:Y *677:RESET_B 29.2554 
*END

*D_NET *29 0.00253827
*CONN
*I *678:RESET_B I *D sky130_fd_sc_hd__dfrtp_4
*I *671:Y O *D sky130_fd_sc_hd__inv_2
*CAP
1 *678:RESET_B 0.00049694
2 *671:Y 0.00049694
3 *678:RESET_B *642:A2 5.52302e-05
4 *678:RESET_B *59:7 0.000159903
5 *63:DIODE *678:RESET_B 0.000122826
6 *673:GATE_N *678:RESET_B 7.48091e-05
7 *681:D *678:RESET_B 0.000828765
8 *683:D *678:RESET_B 2.95076e-06
9 *683:GATE_N *678:RESET_B 0.000126971
10 *14:18 *678:RESET_B 0.000100668
11 *14:25 *678:RESET_B 7.22627e-05
12 *16:11 *678:RESET_B 0
*RES
1 *671:Y *678:RESET_B 33.2732 
*END

*D_NET *30 0.0129335
*CONN
*I *658:A1 I *D sky130_fd_sc_hd__o21a_1
*I *645:A_N I *D sky130_fd_sc_hd__nand3b_1
*I *660:B2 I *D sky130_fd_sc_hd__o2bb2a_1
*I *640:A1 I *D sky130_fd_sc_hd__a21o_1
*I *642:A1 I *D sky130_fd_sc_hd__a21o_1
*I *650:A1 I *D sky130_fd_sc_hd__a21o_1
*I *661:A_N I *D sky130_fd_sc_hd__and3b_2
*I *665:A I *D sky130_fd_sc_hd__clkbuf_1
*I *656:A1 I *D sky130_fd_sc_hd__o21ba_1
*I *652:A I *D sky130_fd_sc_hd__or2b_1
*I *638:X O *D sky130_fd_sc_hd__buf_2
*CAP
1 *658:A1 0
2 *645:A_N 0.000296229
3 *660:B2 0
4 *640:A1 0.00102925
5 *642:A1 0.000140328
6 *650:A1 9.16273e-06
7 *661:A_N 0.000750728
8 *665:A 4.26984e-05
9 *656:A1 0
10 *652:A 0.000177544
11 *638:X 0.000229278
12 *30:82 0.000373067
13 *30:52 0.000149491
14 *30:50 0.00172248
15 *30:39 0.00166621
16 *30:28 0.00035465
17 *30:21 0.000112659
18 *30:11 0.000708048
19 *30:7 0.000632968
20 *30:5 0.000431541
21 *640:A1 *640:A2 0.000115369
22 *642:A1 *642:A2 0.000187867
23 *642:A1 *650:B1 0.00023534
24 *642:A1 *59:10 6.51899e-05
25 *645:A_N *645:C 2.92475e-05
26 *645:A_N *54:9 1.90343e-05
27 *645:A_N *54:23 0.000151098
28 *645:A_N *59:47 0
29 *650:A1 *642:A2 5.58875e-06
30 *650:A1 *650:A2 9.54798e-06
31 *652:A *643:B 0
32 *652:A *693:A 0
33 *652:A *37:16 0.000170532
34 *652:A *54:23 5.52238e-05
35 *661:A_N *45:9 2.21972e-05
36 *661:A_N *49:36 9.59532e-06
37 *30:5 *638:A 0.000274294
38 *30:7 *638:A 0.000180764
39 *30:11 *638:A 0.00044154
40 *30:11 *37:19 0.000161937
41 *30:21 *37:16 3.90513e-05
42 *30:28 *693:A 0
43 *30:39 *675:CLK 4.9343e-05
44 *30:39 *693:A 6.9324e-05
45 *30:39 *47:6 6.42242e-05
46 *30:39 *47:15 7.2754e-05
47 *30:82 *658:A2 0.000100823
48 *30:82 *59:47 0
49 *674:RESET_B *652:A 0.000390561
50 *674:RESET_B *30:21 8.08022e-05
51 *674:RESET_B *30:28 0.000175519
52 *674:RESET_B *30:39 0.000617022
53 *680:GATE_N *645:A_N 0.000274294
54 *682:D *30:5 2.32517e-05
55 *683:D *640:A1 0
56 *14:9 *645:A_N 0
57 *14:9 *30:82 0
58 *16:11 *642:A1 5.58875e-06
59 *16:11 *650:A1 1.01912e-05
*RES
1 *638:X *30:5 12.7107 
2 *30:5 *30:7 1.76786 
3 *30:7 *30:11 11.6071 
4 *30:11 *652:A 19.3179 
5 *30:11 *30:21 1.03571 
6 *30:21 *656:A1 13.8 
7 *30:21 *30:28 2.25 
8 *30:28 *665:A 14.3357 
9 *30:28 *30:39 11.2761 
10 *30:39 *661:A_N 18.9751 
11 *30:39 *30:50 1.27213 
12 *30:50 *30:52 3.41 
13 *30:52 *650:A1 14.0768 
14 *30:52 *642:A1 18.6304 
15 *30:50 *640:A1 20.4777 
16 *30:7 *660:B2 9.3 
17 *30:5 *30:82 6.14286 
18 *30:82 *645:A_N 20.7107 
19 *30:82 *658:A1 13.8 
*END

*D_NET *31 0.00080088
*CONN
*I *640:A2 I *D sky130_fd_sc_hd__a21o_1
*I *639:X O *D sky130_fd_sc_hd__or3b_1
*CAP
1 *640:A2 0.000342755
2 *639:X 0.000342755
3 *640:A2 *641:A_N 0
4 *640:A2 *59:45 0
5 *640:A2 *60:54 0
6 *640:A2 *60:56 0
7 *640:A1 *640:A2 0.000115369
*RES
1 *639:X *640:A2 33.0286 
*END

*D_NET *32 0.00405997
*CONN
*I *642:A2 I *D sky130_fd_sc_hd__a21o_1
*I *660:A1_N I *D sky130_fd_sc_hd__o2bb2a_1
*I *641:Y O *D sky130_fd_sc_hd__nand3b_1
*CAP
1 *642:A2 0.000280717
2 *660:A1_N 0.000306485
3 *641:Y 0.000393826
4 *32:11 0.000981028
5 *642:A2 *650:A2 7.95909e-05
6 *642:A2 *59:7 5.52302e-05
7 *660:A1_N *650:A2 0.000272658
8 *660:A1_N *656:B1_N 0.000209627
9 *660:A1_N *659:A1 0.000106533
10 *660:A1_N *37:19 0.0001021
11 *660:A1_N *60:8 0.000157707
12 *660:A1_N *60:21 0.000154106
13 *660:A1_N *62:6 1.18451e-05
14 *32:11 *60:47 0.000666392
15 *642:A1 *642:A2 0.000187867
16 *650:A1 *642:A2 5.58875e-06
17 *678:RESET_B *642:A2 5.52302e-05
18 *14:9 *660:A1_N 3.34366e-05
19 *16:11 *660:A1_N 0
*RES
1 *641:Y *32:11 20.9429 
2 *32:11 *660:A1_N 23.6884 
3 *32:11 *642:A2 20.2286 
*END

*D_NET *33 0.00162646
*CONN
*I *644:A I *D sky130_fd_sc_hd__clkbuf_1
*I *643:X O *D sky130_fd_sc_hd__or3b_1
*CAP
1 *644:A 0.000668886
2 *643:X 0.000668886
3 *644:A *643:C_N 0.000230665
4 *644:A *55:8 5.80217e-05
5 *679:GATE_N *644:A 0
*RES
1 *643:X *644:A 37.0643 
*END

*D_NET *34 0.00107058
*CONN
*I *647:B I *D sky130_fd_sc_hd__or2_1
*I *646:X O *D sky130_fd_sc_hd__o31a_1
*CAP
1 *647:B 0.000381311
2 *646:X 0.000381311
3 *647:B *646:A2 4.87854e-05
4 *647:B *59:45 0
5 *647:B *61:15 0.00010613
6 *14:18 *647:B 0.00015304
*RES
1 *646:X *647:B 33.3679 
*END

*D_NET *35 0.000896423
*CONN
*I *648:A I *D sky130_fd_sc_hd__clkbuf_1
*I *647:X O *D sky130_fd_sc_hd__or2_1
*CAP
1 *648:A 0.000441993
2 *647:X 0.000441993
3 *648:A *647:A 1.24368e-05
*RES
1 *647:X *648:A 25.7071 
*END

*D_NET *36 0.00181811
*CONN
*I *650:A2 I *D sky130_fd_sc_hd__a21o_1
*I *649:X O *D sky130_fd_sc_hd__or3b_1
*CAP
1 *650:A2 0.000453381
2 *649:X 0.000453381
3 *650:A2 *671:A 0.000312209
4 *650:A2 *61:15 9.31893e-05
5 *650:A2 *62:6 8.15939e-05
6 *642:A2 *650:A2 7.95909e-05
7 *650:A1 *650:A2 9.54798e-06
8 *660:A1_N *650:A2 0.000272658
9 *16:11 *650:A2 6.2556e-05
*RES
1 *649:X *650:A2 36.6179 
*END

*D_NET *37 0.00388765
*CONN
*I *656:A2 I *D sky130_fd_sc_hd__o21ba_1
*I *658:A2 I *D sky130_fd_sc_hd__o21a_1
*I *660:B1 I *D sky130_fd_sc_hd__o2bb2a_1
*I *652:B_N I *D sky130_fd_sc_hd__or2b_1
*I *651:X O *D sky130_fd_sc_hd__or2_1
*CAP
1 *656:A2 0
2 *658:A2 0.000101001
3 *660:B1 0
4 *652:B_N 0
5 *651:X 0.000416365
6 *37:19 0.000335499
7 *37:16 0.000426389
8 *37:5 0.000608256
9 *658:A2 *638:A 8.27532e-05
10 *37:5 *54:23 6.05161e-06
11 *37:16 *693:A 0.000212841
12 *37:16 *54:23 4.72917e-05
13 *37:19 *638:A 0.000485353
14 *37:19 *656:B1_N 0.000345237
15 *652:A *37:16 0.000170532
16 *660:A1_N *37:19 0.0001021
17 *14:9 *658:A2 4.87854e-05
18 *14:9 *37:19 5.33433e-05
19 *16:11 *658:A2 0.000144038
20 *30:11 *37:19 0.000161937
21 *30:21 *37:16 3.90513e-05
22 *30:82 *658:A2 0.000100823
*RES
1 *651:X *37:5 15.5857 
2 *37:5 *652:B_N 9.3 
3 *37:5 *37:16 14.9286 
4 *37:16 *37:19 8.76786 
5 *37:19 *660:B1 9.3 
6 *37:19 *658:A2 21.1929 
7 *37:16 *656:A2 9.3 
*END

*D_NET *38 0.00168813
*CONN
*I *653:A I *D sky130_fd_sc_hd__clkbuf_1
*I *652:X O *D sky130_fd_sc_hd__or2b_1
*CAP
1 *653:A 0.000531675
2 *652:X 0.000531675
3 *653:A *664:A 7.27365e-05
4 *653:A *54:23 4.30382e-05
5 *653:A *58:18 0.000220448
6 *653:A *58:20 0.000288557
*RES
1 *652:X *653:A 37.1 
*END

*D_NET *39 0.0012735
*CONN
*I *655:A I *D sky130_fd_sc_hd__clkbuf_1
*I *654:X O *D sky130_fd_sc_hd__clkbuf_1
*CAP
1 *655:A 0.000276009
2 *654:X 0.000276009
3 *655:A *661:B 9.24491e-05
4 *655:A *55:8 0
5 *655:A *59:59 0.000121606
6 *655:A *59:70 9.01238e-05
7 *65:DIODE *655:A 9.71197e-05
8 *679:GATE_N *655:A 0.000320184
*RES
1 *654:X *655:A 36.2607 
*END

*D_NET *40 0.00157532
*CONN
*I *658:B1 I *D sky130_fd_sc_hd__o21a_1
*I *657:X O *D sky130_fd_sc_hd__xor2_1
*CAP
1 *658:B1 0.000610161
2 *657:X 0.000610161
3 *658:B1 *657:B 0.000154124
4 *658:B1 *59:47 0
5 *658:B1 *59:52 0
6 *4:19 *658:B1 0.000178134
7 *16:11 *658:B1 2.27416e-05
*RES
1 *657:X *658:B1 39.0286 
*END

*D_NET *41 0.000175881
*CONN
*I *660:A2_N I *D sky130_fd_sc_hd__o2bb2a_1
*I *659:X O *D sky130_fd_sc_hd__a21bo_1
*CAP
1 *660:A2_N 4.86839e-05
2 *659:X 4.86839e-05
3 *660:A2_N *656:B1_N 7.85137e-05
*RES
1 *659:X *660:A2_N 28.6357 
*END

*D_NET *42 0.00534801
*CONN
*I *662:A I *D sky130_fd_sc_hd__buf_1
*I *661:X O *D sky130_fd_sc_hd__and3b_2
*CAP
1 *662:A 0
2 *661:X 0.00192406
3 *42:16 0.00192406
4 *42:16 *641:C 5.52302e-05
5 *42:16 *650:B1 5.33005e-05
6 *42:16 *661:B 4.87995e-05
7 *42:16 *674:CLK 9.10373e-05
8 *42:16 *678:CLK 0.000389767
9 *42:16 *690:A 0
10 *42:16 *46:16 0.00013857
11 *42:16 *59:45 0.000198698
12 *42:16 *60:5 1.65417e-05
13 *42:16 *60:47 0.000247361
14 *42:16 *61:8 7.6644e-05
15 *681:D *42:16 3.92854e-05
16 *683:D *42:16 8.23597e-06
17 *683:GATE_N *42:16 0
18 *14:18 *42:16 2.39876e-05