*SPEF "ieee 1481-1999"
*DESIGN "user_project_wrapper"
*DATE "11:11:11 Fri 11 11, 1111"
*VENDOR "OpenRCX"
*PROGRAM "Parallel Extraction"
*VERSION "1.0"
*DESIGN_FLOW "NAME_SCOPE LOCAL" "PIN_CAP NONE"
*DIVIDER /
*DELIMITER :
*BUS_DELIMITER []
*T_UNIT 1 NS
*C_UNIT 1 PF
*R_UNIT 1 OHM
*L_UNIT 1 HENRY

*NAME_MAP
*1 io_in[0]
*2 io_in[10]
*3 io_in[11]
*4 io_in[12]
*5 io_in[13]
*6 io_in[14]
*7 io_in[15]
*8 io_in[16]
*9 io_in[17]
*10 io_in[18]
*11 io_in[19]
*12 io_in[1]
*13 io_in[20]
*14 io_in[21]
*15 io_in[22]
*16 io_in[23]
*17 io_in[24]
*18 io_in[25]
*19 io_in[26]
*20 io_in[27]
*21 io_in[28]
*22 io_in[29]
*23 io_in[2]
*24 io_in[30]
*25 io_in[31]
*26 io_in[32]
*27 io_in[33]
*28 io_in[34]
*29 io_in[35]
*30 io_in[36]
*31 io_in[37]
*32 io_in[3]
*33 io_in[4]
*34 io_in[5]
*35 io_in[6]
*36 io_in[7]
*37 io_in[8]
*38 io_in[9]
*39 io_oeb[0]
*40 io_oeb[10]
*41 io_oeb[11]
*42 io_oeb[12]
*43 io_oeb[13]
*44 io_oeb[14]
*45 io_oeb[15]
*46 io_oeb[16]
*47 io_oeb[17]
*48 io_oeb[18]
*49 io_oeb[19]
*50 io_oeb[1]
*51 io_oeb[20]
*52 io_oeb[21]
*53 io_oeb[22]
*54 io_oeb[23]
*55 io_oeb[24]
*56 io_oeb[25]
*57 io_oeb[26]
*58 io_oeb[27]
*59 io_oeb[28]
*60 io_oeb[29]
*61 io_oeb[2]
*62 io_oeb[30]
*63 io_oeb[31]
*64 io_oeb[32]
*65 io_oeb[33]
*66 io_oeb[34]
*67 io_oeb[35]
*68 io_oeb[36]
*69 io_oeb[37]
*70 io_oeb[3]
*71 io_oeb[4]
*72 io_oeb[5]
*73 io_oeb[6]
*74 io_oeb[7]
*75 io_oeb[8]
*76 io_oeb[9]
*77 io_out[0]
*78 io_out[10]
*79 io_out[11]
*80 io_out[12]
*81 io_out[13]
*82 io_out[14]
*83 io_out[15]
*84 io_out[16]
*85 io_out[17]
*86 io_out[18]
*87 io_out[19]
*88 io_out[1]
*89 io_out[20]
*90 io_out[21]
*91 io_out[22]
*92 io_out[23]
*93 io_out[24]
*94 io_out[25]
*95 io_out[26]
*96 io_out[27]
*97 io_out[28]
*98 io_out[29]
*99 io_out[2]
*100 io_out[30]
*101 io_out[31]
*102 io_out[32]
*103 io_out[33]
*104 io_out[34]
*105 io_out[35]
*106 io_out[36]
*107 io_out[37]
*108 io_out[3]
*109 io_out[4]
*110 io_out[5]
*111 io_out[6]
*112 io_out[7]
*113 io_out[8]
*114 io_out[9]
*115 la_data_in[0]
*116 la_data_in[10]
*117 la_data_in[11]
*118 la_data_in[12]
*119 la_data_in[13]
*120 la_data_in[14]
*121 la_data_in[15]
*122 la_data_in[16]
*123 la_data_in[17]
*124 la_data_in[18]
*125 la_data_in[19]
*126 la_data_in[1]
*127 la_data_in[20]
*128 la_data_in[21]
*129 la_data_in[22]
*130 la_data_in[23]
*131 la_data_in[24]
*132 la_data_in[25]
*133 la_data_in[26]
*134 la_data_in[27]
*135 la_data_in[28]
*136 la_data_in[29]
*137 la_data_in[2]
*138 la_data_in[30]
*139 la_data_in[31]
*140 la_data_in[32]
*141 la_data_in[33]
*142 la_data_in[34]
*143 la_data_in[35]
*144 la_data_in[36]
*145 la_data_in[37]
*146 la_data_in[38]
*147 la_data_in[39]
*148 la_data_in[3]
*149 la_data_in[40]
*150 la_data_in[41]
*151 la_data_in[42]
*152 la_data_in[43]
*153 la_data_in[44]
*154 la_data_in[45]
*155 la_data_in[46]
*156 la_data_in[47]
*157 la_data_in[48]
*158 la_data_in[49]
*159 la_data_in[4]
*160 la_data_in[50]
*161 la_data_in[51]
*162 la_data_in[52]
*163 la_data_in[53]
*164 la_data_in[54]
*165 la_data_in[55]
*166 la_data_in[56]
*167 la_data_in[57]
*168 la_data_in[58]
*169 la_data_in[59]
*170 la_data_in[5]
*171 la_data_in[60]
*172 la_data_in[61]
*173 la_data_in[62]
*174 la_data_in[63]
*175 la_data_in[6]
*176 la_data_in[7]
*177 la_data_in[8]
*178 la_data_in[9]
*179 la_data_out[0]
*180 la_data_out[10]
*181 la_data_out[11]
*182 la_data_out[12]
*183 la_data_out[13]
*184 la_data_out[14]
*185 la_data_out[15]
*186 la_data_out[16]
*187 la_data_out[17]
*188 la_data_out[18]
*189 la_data_out[19]
*190 la_data_out[1]
*191 la_data_out[20]
*192 la_data_out[21]
*193 la_data_out[22]
*194 la_data_out[23]
*195 la_data_out[24]
*196 la_data_out[25]
*197 la_data_out[26]
*198 la_data_out[27]
*199 la_data_out[28]
*200 la_data_out[29]
*201 la_data_out[2]
*202 la_data_out[30]
*203 la_data_out[31]
*204 la_data_out[32]
*205 la_data_out[33]
*206 la_data_out[34]
*207 la_data_out[35]
*208 la_data_out[36]
*209 la_data_out[37]
*210 la_data_out[38]
*211 la_data_out[39]
*212 la_data_out[3]
*213 la_data_out[40]
*214 la_data_out[41]
*215 la_data_out[42]
*216 la_data_out[43]
*217 la_data_out[44]
*218 la_data_out[45]
*219 la_data_out[46]
*220 la_data_out[47]
*221 la_data_out[48]
*222 la_data_out[49]
*223 la_data_out[4]
*224 la_data_out[50]
*225 la_data_out[51]
*226 la_data_out[52]
*227 la_data_out[53]
*228 la_data_out[54]
*229 la_data_out[55]
*230 la_data_out[56]
*231 la_data_out[57]
*232 la_data_out[58]
*233 la_data_out[59]
*234 la_data_out[5]
*235 la_data_out[60]
*236 la_data_out[61]
*237 la_data_out[62]
*238 la_data_out[63]
*239 la_data_out[6]
*240 la_data_out[7]
*241 la_data_out[8]
*242 la_data_out[9]
*243 la_oenb[0]
*244 la_oenb[10]
*245 la_oenb[11]
*246 la_oenb[12]
*247 la_oenb[13]
*248 la_oenb[14]
*249 la_oenb[15]
*250 la_oenb[16]
*251 la_oenb[17]
*252 la_oenb[18]
*253 la_oenb[19]
*254 la_oenb[1]
*255 la_oenb[20]
*256 la_oenb[21]
*257 la_oenb[22]
*258 la_oenb[23]
*259 la_oenb[24]
*260 la_oenb[25]
*261 la_oenb[26]
*262 la_oenb[27]
*263 la_oenb[28]
*264 la_oenb[29]
*265 la_oenb[2]
*266 la_oenb[30]
*267 la_oenb[31]
*268 la_oenb[32]
*269 la_oenb[33]
*270 la_oenb[34]
*271 la_oenb[35]
*272 la_oenb[36]
*273 la_oenb[37]
*274 la_oenb[38]
*275 la_oenb[39]
*276 la_oenb[3]
*277 la_oenb[40]
*278 la_oenb[41]
*279 la_oenb[42]
*280 la_oenb[43]
*281 la_oenb[44]
*282 la_oenb[45]
*283 la_oenb[46]
*284 la_oenb[47]
*285 la_oenb[48]
*286 la_oenb[49]
*287 la_oenb[4]
*288 la_oenb[50]
*289 la_oenb[51]
*290 la_oenb[52]
*291 la_oenb[53]
*292 la_oenb[54]
*293 la_oenb[55]
*294 la_oenb[56]
*295 la_oenb[57]
*296 la_oenb[58]
*297 la_oenb[59]
*298 la_oenb[5]
*299 la_oenb[60]
*300 la_oenb[61]
*301 la_oenb[62]
*302 la_oenb[63]
*303 la_oenb[6]
*304 la_oenb[7]
*305 la_oenb[8]
*306 la_oenb[9]
*307 user_clock2
*308 user_irq[0]
*309 user_irq[1]
*310 user_irq[2]
*313 wb_clk_i
*314 wb_rst_i
*315 wbs_ack_o
*316 wbs_adr_i[0]
*317 wbs_adr_i[10]
*318 wbs_adr_i[11]
*319 wbs_adr_i[12]
*320 wbs_adr_i[13]
*321 wbs_adr_i[14]
*322 wbs_adr_i[15]
*323 wbs_adr_i[16]
*324 wbs_adr_i[17]
*325 wbs_adr_i[18]
*326 wbs_adr_i[19]
*327 wbs_adr_i[1]
*328 wbs_adr_i[20]
*329 wbs_adr_i[21]
*330 wbs_adr_i[22]
*331 wbs_adr_i[23]
*332 wbs_adr_i[24]
*333 wbs_adr_i[25]
*334 wbs_adr_i[26]
*335 wbs_adr_i[27]
*336 wbs_adr_i[28]
*337 wbs_adr_i[29]
*338 wbs_adr_i[2]
*339 wbs_adr_i[30]
*340 wbs_adr_i[31]
*341 wbs_adr_i[3]
*342 wbs_adr_i[4]
*343 wbs_adr_i[5]
*344 wbs_adr_i[6]
*345 wbs_adr_i[7]
*346 wbs_adr_i[8]
*347 wbs_adr_i[9]
*348 wbs_cyc_i
*349 wbs_dat_i[0]
*350 wbs_dat_i[10]
*351 wbs_dat_i[11]
*352 wbs_dat_i[12]
*353 wbs_dat_i[13]
*354 wbs_dat_i[14]
*355 wbs_dat_i[15]
*356 wbs_dat_i[16]
*357 wbs_dat_i[17]
*358 wbs_dat_i[18]
*359 wbs_dat_i[19]
*360 wbs_dat_i[1]
*361 wbs_dat_i[20]
*362 wbs_dat_i[21]
*363 wbs_dat_i[22]
*364 wbs_dat_i[23]
*365 wbs_dat_i[24]
*366 wbs_dat_i[25]
*367 wbs_dat_i[26]
*368 wbs_dat_i[27]
*369 wbs_dat_i[28]
*370 wbs_dat_i[29]
*371 wbs_dat_i[2]
*372 wbs_dat_i[30]
*373 wbs_dat_i[31]
*374 wbs_dat_i[3]
*375 wbs_dat_i[4]
*376 wbs_dat_i[5]
*377 wbs_dat_i[6]
*378 wbs_dat_i[7]
*379 wbs_dat_i[8]
*380 wbs_dat_i[9]
*381 wbs_dat_o[0]
*382 wbs_dat_o[10]
*383 wbs_dat_o[11]
*384 wbs_dat_o[12]
*385 wbs_dat_o[13]
*386 wbs_dat_o[14]
*387 wbs_dat_o[15]
*388 wbs_dat_o[16]
*389 wbs_dat_o[17]
*390 wbs_dat_o[18]
*391 wbs_dat_o[19]
*392 wbs_dat_o[1]
*393 wbs_dat_o[20]
*394 wbs_dat_o[21]
*395 wbs_dat_o[22]
*396 wbs_dat_o[23]
*397 wbs_dat_o[24]
*398 wbs_dat_o[25]
*399 wbs_dat_o[26]
*400 wbs_dat_o[27]
*401 wbs_dat_o[28]
*402 wbs_dat_o[29]
*403 wbs_dat_o[2]
*404 wbs_dat_o[30]
*405 wbs_dat_o[31]
*406 wbs_dat_o[3]
*407 wbs_dat_o[4]
*408 wbs_dat_o[5]
*409 wbs_dat_o[6]
*410 wbs_dat_o[7]
*411 wbs_dat_o[8]
*412 wbs_dat_o[9]
*413 wbs_sel_i[0]
*414 wbs_sel_i[1]
*415 wbs_sel_i[2]
*416 wbs_sel_i[3]
*417 wbs_stb_i
*418 wbs_we_i
*419 mprj

*PORTS
io_in[0] I
io_in[10] I
io_in[11] I
io_in[12] I
io_in[13] I
io_in[14] I
io_in[15] I
io_in[16] I
io_in[17] I
io_in[18] I
io_in[19] I
io_in[1] I
io_in[20] I
io_in[21] I
io_in[22] I
io_in[23] I
io_in[24] I
io_in[25] I
io_in[26] I
io_in[27] I
io_in[28] I
io_in[29] I
io_in[2] I
io_in[30] I
io_in[31] I
io_in[32] I
io_in[33] I
io_in[34] I
io_in[35] I
io_in[36] I
io_in[37] I
io_in[3] I
io_in[4] I
io_in[5] I
io_in[6] I
io_in[7] I
io_in[8] I
io_in[9] I
io_oeb[0] O
io_oeb[10] O
io_oeb[11] O
io_oeb[12] O
io_oeb[13] O
io_oeb[14] O
io_oeb[15] O
io_oeb[16] O
io_oeb[17] O
io_oeb[18] O
io_oeb[19] O
io_oeb[1] O
io_oeb[20] O
io_oeb[21] O
io_oeb[22] O
io_oeb[23] O
io_oeb[24] O
io_oeb[25] O
io_oeb[26] O
io_oeb[27] O
io_oeb[28] O
io_oeb[29] O
io_oeb[2] O
io_oeb[30] O
io_oeb[31] O
io_oeb[32] O
io_oeb[33] O
io_oeb[34] O
io_oeb[35] O
io_oeb[36] O
io_oeb[37] O
io_oeb[3] O
io_oeb[4] O
io_oeb[5] O
io_oeb[6] O
io_oeb[7] O
io_oeb[8] O
io_oeb[9] O
io_out[0] O
io_out[10] O
io_out[11] O
io_out[12] O
io_out[13] O
io_out[14] O
io_out[15] O
io_out[16] O
io_out[17] O
io_out[18] O
io_out[19] O
io_out[1] O
io_out[20] O
io_out[21] O
io_out[22] O
io_out[23] O
io_out[24] O
io_out[25] O
io_out[26] O
io_out[27] O
io_out[28] O
io_out[29] O
io_out[2] O
io_out[30] O
io_out[31] O
io_out[32] O
io_out[33] O
io_out[34] O
io_out[35] O
io_out[36] O
io_out[37] O
io_out[3] O
io_out[4] O
io_out[5] O
io_out[6] O
io_out[7] O
io_out[8] O
io_out[9] O
la_data_in[0] I
la_data_in[10] I
la_data_in[11] I
la_data_in[12] I
la_data_in[13] I
la_data_in[14] I
la_data_in[15] I
la_data_in[16] I
la_data_in[17] I
la_data_in[18] I
la_data_in[19] I
la_data_in[1] I
la_data_in[20] I
la_data_in[21] I
la_data_in[22] I
la_data_in[23] I
la_data_in[24] I
la_data_in[25] I
la_data_in[26] I
la_data_in[27] I
la_data_in[28] I
la_data_in[29] I
la_data_in[2] I
la_data_in[30] I
la_data_in[31] I
la_data_in[32] I
la_data_in[33] I
la_data_in[34] I
la_data_in[35] I
la_data_in[36] I
la_data_in[37] I
la_data_in[38] I
la_data_in[39] I
la_data_in[3] I
la_data_in[40] I
la_data_in[41] I
la_data_in[42] I
la_data_in[43] I
la_data_in[44] I
la_data_in[45] I
la_data_in[46] I
la_data_in[47] I
la_data_in[48] I
la_data_in[49] I
la_data_in[4] I
la_data_in[50] I
la_data_in[51] I
la_data_in[52] I
la_data_in[53] I
la_data_in[54] I
la_data_in[55] I
la_data_in[56] I
la_data_in[57] I
la_data_in[58] I
la_data_in[59] I
la_data_in[5] I
la_data_in[60] I
la_data_in[61] I
la_data_in[62] I
la_data_in[63] I
la_data_in[6] I
la_data_in[7] I
la_data_in[8] I
la_data_in[9] I
la_data_out[0] O
la_data_out[10] O
la_data_out[11] O
la_data_out[12] O
la_data_out[13] O
la_data_out[14] O
la_data_out[15] O
la_data_out[16] O
la_data_out[17] O
la_data_out[18] O
la_data_out[19] O
la_data_out[1] O
la_data_out[20] O
la_data_out[21] O
la_data_out[22] O
la_data_out[23] O
la_data_out[24] O
la_data_out[25] O
la_data_out[26] O
la_data_out[27] O
la_data_out[28] O
la_data_out[29] O
la_data_out[2] O
la_data_out[30] O
la_data_out[31] O
la_data_out[32] O
la_data_out[33] O
la_data_out[34] O
la_data_out[35] O
la_data_out[36] O
la_data_out[37] O
la_data_out[38] O
la_data_out[39] O
la_data_out[3] O
la_data_out[40] O
la_data_out[41] O
la_data_out[42] O
la_data_out[43] O
la_data_out[44] O
la_data_out[45] O
la_data_out[46] O
la_data_out[47] O
la_data_out[48] O
la_data_out[49] O
la_data_out[4] O
la_data_out[50] O
la_data_out[51] O
la_data_out[52] O
la_data_out[53] O
la_data_out[54] O
la_data_out[55] O
la_data_out[56] O
la_data_out[57] O
la_data_out[58] O
la_data_out[59] O
la_data_out[5] O
la_data_out[60] O
la_data_out[61] O
la_data_out[62] O
la_data_out[63] O
la_data_out[6] O
la_data_out[7] O
la_data_out[8] O
la_data_out[9] O
la_oenb[0] I
la_oenb[10] I
la_oenb[11] I
la_oenb[12] I
la_oenb[13] I
la_oenb[14] I
la_oenb[15] I
la_oenb[16] I
la_oenb[17] I
la_oenb[18] I
la_oenb[19] I
la_oenb[1] I
la_oenb[20] I
la_oenb[21] I
la_oenb[22] I
la_oenb[23] I
la_oenb[24] I
la_oenb[25] I
la_oenb[26] I
la_oenb[27] I
la_oenb[28] I
la_oenb[29] I
la_oenb[2] I
la_oenb[30] I
la_oenb[31] I
la_oenb[32] I
la_oenb[33] I
la_oenb[34] I
la_oenb[35] I
la_oenb[36] I
la_oenb[37] I
la_oenb[38] I
la_oenb[39] I
la_oenb[3] I
la_oenb[40] I
la_oenb[41] I
la_oenb[42] I
la_oenb[43] I
la_oenb[44] I
la_oenb[45] I
la_oenb[46] I
la_oenb[47] I
la_oenb[48] I
la_oenb[49] I
la_oenb[4] I
la_oenb[50] I
la_oenb[51] I
la_oenb[52] I
la_oenb[53] I
la_oenb[54] I
la_oenb[55] I
la_oenb[56] I
la_oenb[57] I
la_oenb[58] I
la_oenb[59] I
la_oenb[5] I
la_oenb[60] I
la_oenb[61] I
la_oenb[62] I
la_oenb[63] I
la_oenb[6] I
la_oenb[7] I
la_oenb[8] I
la_oenb[9] I
user_clock2 I
user_irq[0] O
user_irq[1] O
user_irq[2] O
wb_clk_i I
wb_rst_i I
wbs_ack_o O
wbs_adr_i[0] I
wbs_adr_i[10] I
wbs_adr_i[11] I
wbs_adr_i[12] I
wbs_adr_i[13] I
wbs_adr_i[14] I
wbs_adr_i[15] I
wbs_adr_i[16] I
wbs_adr_i[17] I
wbs_adr_i[18] I
wbs_adr_i[19] I
wbs_adr_i[1] I
wbs_adr_i[20] I
wbs_adr_i[21] I
wbs_adr_i[22] I
wbs_adr_i[23] I
wbs_adr_i[24] I
wbs_adr_i[25] I
wbs_adr_i[26] I
wbs_adr_i[27] I
wbs_adr_i[28] I
wbs_adr_i[29] I
wbs_adr_i[2] I
wbs_adr_i[30] I
wbs_adr_i[31] I
wbs_adr_i[3] I
wbs_adr_i[4] I
wbs_adr_i[5] I
wbs_adr_i[6] I
wbs_adr_i[7] I
wbs_adr_i[8] I
wbs_adr_i[9] I
wbs_cyc_i I
wbs_dat_i[0] I
wbs_dat_i[10] I
wbs_dat_i[11] I
wbs_dat_i[12] I
wbs_dat_i[13] I
wbs_dat_i[14] I
wbs_dat_i[15] I
wbs_dat_i[16] I
wbs_dat_i[17] I
wbs_dat_i[18] I
wbs_dat_i[19] I
wbs_dat_i[1] I
wbs_dat_i[20] I
wbs_dat_i[21] I
wbs_dat_i[22] I
wbs_dat_i[23] I
wbs_dat_i[24] I
wbs_dat_i[25] I
wbs_dat_i[26] I
wbs_dat_i[27] I
wbs_dat_i[28] I
wbs_dat_i[29] I
wbs_dat_i[2] I
wbs_dat_i[30] I
wbs_dat_i[31] I
wbs_dat_i[3] I
wbs_dat_i[4] I
wbs_dat_i[5] I
wbs_dat_i[6] I
wbs_dat_i[7] I
wbs_dat_i[8] I
wbs_dat_i[9] I
wbs_dat_o[0] O
wbs_dat_o[10] O
wbs_dat_o[11] O
wbs_dat_o[12] O
wbs_dat_o[13] O
wbs_dat_o[14] O
wbs_dat_o[15] O
wbs_dat_o[16] O
wbs_dat_o[17] O
wbs_dat_o[18] O
wbs_dat_o[19] O
wbs_dat_o[1] O
wbs_dat_o[20] O
wbs_dat_o[21] O
wbs_dat_o[22] O
wbs_dat_o[23] O
wbs_dat_o[24] O
wbs_dat_o[25] O
wbs_dat_o[26] O
wbs_dat_o[27] O
wbs_dat_o[28] O
wbs_dat_o[29] O
wbs_dat_o[2] O
wbs_dat_o[30] O
wbs_dat_o[31] O
wbs_dat_o[3] O
wbs_dat_o[4] O
wbs_dat_o[5] O
wbs_dat_o[6] O
wbs_dat_o[7] O
wbs_dat_o[8] O
wbs_dat_o[9] O
wbs_sel_i[0] I
wbs_sel_i[1] I
wbs_sel_i[2] I
wbs_sel_i[3] I
wbs_stb_i I
wbs_we_i I

*D_NET *1 0.499716
*CONN
*P io_in[0] I
*I *419:io_in[0] I *D spi_wrapper
*CAP
1 io_in[0] 0.00466579
2 *419:io_in[0] 0.00023556
3 *1:12 0.0541239
4 *1:11 0.0538883
5 *1:9 0.0692184
6 *1:7 0.0738841
7 *419:io_in[0] *77:7 0.000324263
8 *1:9 *314:8 0
9 *1:12 *50:11 0.243375
*RES
1 io_in[0] *1:7 37.305 
2 *1:7 *1:9 542.7 
3 *1:9 *1:11 4.5 
4 *1:11 *1:12 724.05 
5 *1:12 *419:io_in[0] 1.845 
*END

*D_NET *2 0.217242
*CONN
*P io_in[10] I
*I *419:io_in[10] I *D spi_wrapper
*CAP
1 io_in[10] 0.000276945
2 *419:io_in[10] 0.000835782
3 *2:11 0.0527212
4 *2:10 0.0518854
5 *2:8 0.00568166
6 *2:7 0.00595861
7 *419:io_in[10] *20:13 0
8 *419:io_in[10] *21:19 0.00219807
9 *2:8 *37:8 0.0340516
10 *2:11 *419:io_in[32] 0.00413633
11 *2:11 *419:io_in[36] 0
12 *2:11 *12:11 0
13 *2:11 *20:13 0
14 *2:11 *21:19 0.0496697
15 *2:11 *26:19 0.000684584
16 *2:11 *59:5 0.000479761
17 *2:11 *76:15 0.00247057
18 *2:11 *76:19 0.000469344
19 *2:11 *76:23 0.00289697
20 *2:11 *106:7 0.00282561
*RES
1 io_in[10] *2:7 6.705 
2 *2:7 *2:8 86.67 
3 *2:8 *2:10 4.5 
4 *2:10 *2:11 488.16 
5 *2:11 *419:io_in[10] 16.47 
*END

*D_NET *3 0.221717
*CONN
*P io_in[11] I
*I *419:io_in[11] I *D spi_wrapper
*CAP
1 io_in[11] 0.000363112
2 *419:io_in[11] 0.0012371
3 *3:19 0.0123933
4 *3:18 0.015695
5 *3:13 0.0487006
6 *3:11 0.0445248
7 *419:io_in[11] *41:9 0
8 *3:18 *30:12 0
9 *3:18 *31:16 0
10 *3:19 *419:io_in[23] 0.00393445
11 *3:19 *419:io_in[24] 0.001506
12 *3:19 *38:19 0.0857088
13 *3:19 *49:8 0.00765406
*RES
1 io_in[11] *3:11 3.195 
2 *3:11 *3:13 278.37 
3 *3:13 *3:18 42.21 
4 *3:18 *3:19 216.09 
5 *3:19 *419:io_in[11] 11.925 
*END

*D_NET *4 0.138928
*CONN
*P io_in[12] I
*I *419:io_in[12] I *D spi_wrapper
*CAP
1 io_in[12] 0.000167227
2 *419:io_in[12] 0.00515997
3 *4:21 0.00901318
4 *4:13 0.063883
5 *4:11 0.060197
6 *4:13 *7:14 0
7 *4:13 *55:16 0
8 *4:21 *419:io_in[15] 0
9 *4:21 *37:11 0
10 *4:21 *82:14 0.000507778
11 *4:21 *114:14 0
*RES
1 io_in[12] *4:11 2.115 
2 *4:11 *4:13 467.37 
3 *4:13 *4:21 40.5 
4 *4:21 *419:io_in[12] 33.255 
*END

*D_NET *5 0.195768
*CONN
*P io_in[13] I
*I *419:io_in[13] I *D spi_wrapper
*CAP
1 io_in[13] 0.000488137
2 *419:io_in[13] 0.00299708
3 *5:17 0.00524495
4 *5:11 0.0570348
5 *5:10 0.054787
6 *5:8 0.000988765
7 *5:7 0.0014769
8 *419:io_in[13] *87:11 0.00866254
9 *5:8 *6:8 0.027122
10 *5:8 *7:11 0.0259882
11 *5:8 *37:8 0
12 *5:11 *37:11 0
13 *5:11 *41:10 0.00597539
14 *5:11 *98:14 0
15 *5:17 *41:10 0.00197338
16 *5:17 *80:12 0.000479628
17 *5:17 *81:16 0.00254939
18 *5:17 *98:14 0
*RES
1 io_in[13] *5:7 8.325 
2 *5:7 *5:8 74.43 
3 *5:8 *5:10 4.5 
4 *5:10 *5:11 448.74 
5 *5:11 *5:17 31.77 
6 *5:17 *419:io_in[13] 29.205 
*END

*D_NET *6 0.235483
*CONN
*P io_in[14] I
*I *419:io_in[14] I *D spi_wrapper
*CAP
1 io_in[14] 0.000634044
2 *419:io_in[14] 0.0057937
3 *6:11 0.063203
4 *6:10 0.0574093
5 *6:8 0.00139896
6 *6:7 0.002033
7 *419:io_in[14] *44:11 0
8 *419:io_in[14] *80:15 0
9 *419:io_in[14] *81:16 0
10 *6:8 *7:11 0.0112971
11 *6:8 *44:17 0.0479285
12 *6:11 *51:14 0.0186632
13 *6:11 *114:14 0
14 *5:8 *6:8 0.027122
*RES
1 io_in[14] *6:7 8.505 
2 *6:7 *6:8 132.75 
3 *6:8 *6:10 4.5 
4 *6:10 *6:11 469.89 
5 *6:11 *419:io_in[14] 41.895 
*END

*D_NET *7 0.224031
*CONN
*P io_in[15] I
*I *419:io_in[15] I *D spi_wrapper
*CAP
1 io_in[15] 0.00281871
2 *419:io_in[15] 0.00614476
3 *7:14 0.06109
4 *7:13 0.0549452
5 *7:11 0.013079
6 *7:10 0.0158977
7 *7:11 *44:17 0.00497152
8 *7:14 *55:16 0.0277986
9 *4:13 *7:14 0
10 *4:21 *419:io_in[15] 0
11 *5:8 *7:11 0.0259882
12 *6:8 *7:11 0.0112971
*RES
1 io_in[15] *7:10 31.635 
2 *7:10 *7:11 174.87 
3 *7:11 *7:13 4.5 
4 *7:13 *7:14 462.33 
5 *7:14 *419:io_in[15] 44.415 
*END

*D_NET *8 0.146011
*CONN
*P io_in[16] I
*I *419:io_in[16] I *D spi_wrapper
*CAP
1 io_in[16] 0.000247817
2 *419:io_in[16] 0.000166616
3 *8:19 0.00823997
4 *8:18 0.00807336
5 *8:16 0.04273
6 *8:15 0.04273
7 *8:13 0.0217879
8 *8:11 0.0220357
9 *8:19 *83:7 0
*RES
1 io_in[16] *8:11 2.655 
2 *8:11 *8:13 167.67 
3 *8:13 *8:15 4.5 
4 *8:15 *8:16 332.19 
5 *8:16 *8:18 4.5 
6 *8:18 *8:19 53.91 
7 *8:19 *419:io_in[16] 1.305 
*END

*D_NET *9 0.116584
*CONN
*P io_in[17] I
*I *419:io_in[17] I *D spi_wrapper
*CAP
1 io_in[17] 0.00137437
2 *419:io_in[17] 9.76714e-05
3 *9:17 0.00965362
4 *9:16 0.00955595
5 *9:14 0.0279247
6 *9:13 0.0279247
7 *9:11 0.0192482
8 *9:10 0.0206226
9 *9:10 *45:14 0.000181847
*RES
1 io_in[17] *9:10 19.935 
2 *9:10 *9:11 148.05 
3 *9:11 *9:13 4.5 
4 *9:13 *9:14 217.35 
5 *9:14 *9:16 4.5 
6 *9:16 *9:17 64.71 
7 *9:17 *419:io_in[17] 0.765 
*END

*D_NET *10 0.121301
*CONN
*P io_in[18] I
*I *419:io_in[18] I *D spi_wrapper
*CAP
1 io_in[18] 0.00100592
2 *419:io_in[18] 0.00242674
3 *10:11 0.0291213
4 *10:10 0.0266945
5 *10:8 0.00564669
6 *10:7 0.00665261
7 *10:8 io_oeb[18] 0.00877997
8 *10:8 *45:14 0.000743366
9 *10:8 *46:14 0.0402304
*RES
1 io_in[18] *10:7 12.285 
2 *10:7 *10:8 104.85 
3 *10:8 *10:10 4.5 
4 *10:10 *10:11 199.08 
5 *10:11 *419:io_in[18] 14.985 
*END

*D_NET *11 0.0632805
*CONN
*P io_in[19] I
*I *419:io_in[19] I *D spi_wrapper
*CAP
1 io_in[19] 0.000178873
2 *419:io_in[19] 0.00270866
3 *11:19 0.0131655
4 *11:18 0.0115193
5 *11:13 0.0182959
6 *11:11 0.0174122
7 *419:io_in[19] *86:7 0
8 *11:13 *45:11 0
9 *11:19 *46:11 0
*RES
1 io_in[19] *11:11 2.115 
2 *11:11 *11:13 132.21 
3 *11:13 *11:18 17.37 
4 *11:18 *11:19 74.7 
5 *11:19 *419:io_in[19] 17.055 
*END

*D_NET *12 0.79303
*CONN
*P io_in[1] I
*I *419:io_in[1] I *D spi_wrapper
*CAP
1 io_in[1] 0.000492522
2 *419:io_in[1] 0.000258168
3 *12:11 0.0394848
4 *12:10 0.0392267
5 *12:8 0.00450488
6 *12:7 0.0049974
7 *12:8 *23:8 0.235164
8 *12:8 *39:17 0.26022
9 *12:11 *419:io_in[36] 0.00937777
10 *12:11 *20:13 0.0779048
11 *12:11 *28:19 0.00694818
12 *12:11 *50:10 0.000988022
13 *12:11 *99:8 0.019164
14 *12:11 *99:20 0.0942994
15 *2:11 *12:11 0
*RES
1 io_in[1] *12:7 8.505 
2 *12:7 *12:8 661.95 
3 *12:8 *12:10 4.5 
4 *12:10 *12:11 566.01 
5 *12:11 *419:io_in[1] 5.985 
*END

*D_NET *13 0.0992375
*CONN
*P io_in[20] I
*I *419:io_in[20] I *D spi_wrapper
*CAP
1 io_in[20] 0.0182738
2 *419:io_in[20] 0.00237964
3 *13:11 0.0117
4 *13:10 0.00932038
5 *13:8 0.0193654
6 *13:7 0.0193654
7 *13:5 0.0182738
8 *419:io_in[20] *51:11 0.000558994
9 *419:io_in[20] *87:7 0
10 *13:8 *42:14 0
11 *13:11 *48:11 0
12 *13:11 *51:11 0
*RES
1 io_in[20] *13:5 140.625 
2 *13:5 *13:7 4.5 
3 *13:7 *13:8 121.59 
4 *13:8 *13:10 4.5 
5 *13:10 *13:11 66.24 
6 *13:11 *419:io_in[20] 16.695 
*END

*D_NET *14 0.120879
*CONN
*P io_in[21] I
*I *419:io_in[21] I *D spi_wrapper
*CAP
1 io_in[21] 0.001352
2 *419:io_in[21] 0.000166616
3 *14:17 0.0111015
4 *14:16 0.0109348
5 *14:14 0.0300212
6 *14:13 0.0300212
7 *14:11 0.0178374
8 *14:10 0.0191894
9 *14:10 *16:8 0.000254726
*RES
1 io_in[21] *14:10 19.935 
2 *14:10 *14:11 137.25 
3 *14:11 *14:13 4.5 
4 *14:13 *14:14 233.73 
5 *14:14 *14:16 4.5 
6 *14:16 *14:17 75.51 
7 *14:17 *419:io_in[21] 1.305 
*END

*D_NET *15 0.150197
*CONN
*P io_in[22] I
*I *419:io_in[22] I *D spi_wrapper
*CAP
1 io_in[22] 0.00486661
2 *419:io_in[22] 9.76714e-05
3 *15:15 0.00848981
4 *15:14 0.00839214
5 *15:12 0.0450609
6 *15:11 0.0450609
7 *15:9 0.0166809
8 *15:7 0.0215476
9 *15:15 *16:11 0
10 *15:15 *90:7 0
*RES
1 io_in[22] *15:7 37.305 
2 *15:7 *15:9 128.34 
3 *15:9 *15:11 4.5 
4 *15:11 *15:12 351.09 
5 *15:12 *15:14 4.5 
6 *15:14 *15:15 56.61 
7 *15:15 *419:io_in[22] 0.765 
*END

*D_NET *16 0.190772
*CONN
*P io_in[23] I
*I *419:io_in[23] I *D spi_wrapper
*CAP
1 io_in[23] 0.00109083
2 *419:io_in[23] 0.00193145
3 *16:11 0.0295194
4 *16:10 0.0275879
5 *16:8 0.0561997
6 *16:7 0.0572905
7 *419:io_in[23] *23:11 0
8 *16:8 io_oeb[19] 0
9 *16:8 *45:14 0.0129627
10 *3:19 *419:io_in[23] 0.00393445
11 *14:10 *16:8 0.000254726
12 *15:15 *16:11 0
*RES
1 io_in[23] *16:7 12.825 
2 *16:7 *16:8 455.13 
3 *16:8 *16:10 4.5 
4 *16:10 *16:11 205.65 
5 *16:11 *419:io_in[23] 26.415 
*END

*D_NET *17 0.23469
*CONN
*P io_in[24] I
*I *419:io_in[24] I *D spi_wrapper
*CAP
1 io_in[24] 0.000201168
2 *419:io_in[24] 0.00167654
3 *17:16 0.028348
4 *17:15 0.0266714
5 *17:13 0.0879915
6 *17:11 0.0881927
7 *419:io_in[24] *23:11 0
8 *419:io_in[24] *54:11 2.95922e-05
9 *419:io_in[24] *55:13 7.29053e-05
10 *3:19 *419:io_in[24] 0.001506
*RES
1 io_in[24] *17:11 1.935 
2 *17:11 *17:13 557.01 
3 *17:13 *17:15 4.5 
4 *17:15 *17:16 198.99 
5 *17:16 *419:io_in[24] 20.475 
*END

*D_NET *18 0.199709
*CONN
*P io_in[25] I
*I *419:io_in[25] I *D spi_wrapper
*CAP
1 io_in[25] 0.00117627
2 *419:io_in[25] 0.00676457
3 *18:11 0.0748303
4 *18:10 0.0680658
5 *18:8 0.0125936
6 *18:7 0.0137699
7 *18:11 *47:10 0.0225083
*RES
1 io_in[25] *18:7 13.365 
2 *18:7 *18:8 96.75 
3 *18:8 *18:10 4.5 
4 *18:10 *18:11 557.73 
5 *18:11 *419:io_in[25] 49.635 
*END

*D_NET *19 0.168471
*CONN
*P io_in[26] I
*I *419:io_in[26] I *D spi_wrapper
*CAP
1 io_in[26] 0.00181137
2 *419:io_in[26] 0.000166616
3 *19:12 0.0104456
4 *19:11 0.010279
5 *19:9 0.0719784
6 *19:7 0.0737898
7 *19:9 *53:10 0
8 *19:12 *94:7 0
*RES
1 io_in[26] *19:7 13.185 
2 *19:7 *19:9 561.78 
3 *19:9 *19:11 4.5 
4 *19:11 *19:12 71.55 
5 *19:12 *419:io_in[26] 1.305 
*END

*D_NET *20 0.206117
*CONN
*P io_in[27] I
*I *419:io_in[27] I *D spi_wrapper
*CAP
1 io_in[27] 0.00035683
2 *419:io_in[27] 0.00021921
3 *20:13 0.0610954
4 *20:11 0.0612331
5 *20:13 *21:19 0
6 *20:13 *28:19 0.00224517
7 *20:13 *50:10 0.00169699
8 *20:13 *62:8 0.00136533
9 *419:io_in[10] *20:13 0
10 *2:11 *20:13 0
11 *12:11 *20:13 0.0779048
*RES
1 io_in[27] *20:11 3.015 
2 *20:11 *20:13 583.47 
3 *20:13 *419:io_in[27] 5.805 
*END

*D_NET *21 0.265095
*CONN
*P io_in[28] I
*I *419:io_in[28] I *D spi_wrapper
*CAP
1 io_in[28] 0.000249598
2 *419:io_in[28] 0
3 *21:19 0.00642488
4 *21:18 0.00642488
5 *21:16 0.00865557
6 *21:15 0.00865557
7 *21:13 0.0483676
8 *21:11 0.0486172
9 *21:16 *50:11 0
10 *21:16 *77:8 0
11 *21:19 *59:5 0.0858315
12 *419:io_in[10] *21:19 0.00219807
13 *2:11 *21:19 0.0496697
14 *20:13 *21:19 0
*RES
1 io_in[28] *21:11 2.475 
2 *21:11 *21:13 376.11 
3 *21:13 *21:15 4.5 
4 *21:15 *21:16 65.79 
5 *21:16 *21:18 4.5 
6 *21:18 *21:19 215.01 
7 *21:19 *419:io_in[28] 4.5 
*END

*D_NET *22 0.287479
*CONN
*P io_in[29] I
*I *419:io_in[29] I *D spi_wrapper
*CAP
1 io_in[29] 0.00117627
2 *419:io_in[29] 0.00101969
3 *22:11 0.0324931
4 *22:10 0.0314734
5 *22:8 0.0181081
6 *22:7 0.0192844
7 *22:11 *25:15 0.00531803
8 *22:11 *42:10 0.00131476
9 *22:11 *51:11 0.00119081
10 *22:11 *54:10 0.0021914
11 *22:11 *61:8 0.0799719
12 *22:11 *83:8 0.000479286
13 *22:11 *86:8 0.00194525
14 *22:11 *92:8 0.0915131
15 *22:11 *94:8 0
*RES
1 io_in[29] *22:7 13.365 
2 *22:7 *22:8 138.87 
3 *22:8 *22:10 4.5 
4 *22:10 *22:11 589.77 
5 *22:11 *419:io_in[29] 11.205 
*END

*D_NET *23 0.760901
*CONN
*P io_in[2] I
*I *419:io_in[2] I *D spi_wrapper
*CAP
1 io_in[2] 0.000470965
2 *419:io_in[2] 0.00141338
3 *23:11 0.0391652
4 *23:10 0.0377518
5 *23:8 0.0032321
6 *23:7 0.00370307
7 *23:8 *32:8 0.000440019
8 *23:8 *39:17 0.00137437
9 *23:8 *61:11 0.220572
10 *23:11 *34:11 0.213517
11 *23:11 *43:10 0
12 *23:11 *49:8 0
13 *23:11 *58:8 0.00409679
14 *419:io_in[23] *23:11 0
15 *419:io_in[24] *23:11 0
16 *12:8 *23:8 0.235164
*RES
1 io_in[2] *23:7 8.325 
2 *23:7 *23:8 606.15 
3 *23:8 *23:10 4.5 
4 *23:10 *23:11 558.63 
5 *23:11 *419:io_in[2] 13.905 
*END

*D_NET *24 0.256905
*CONN
*P io_in[30] I
*I *419:io_in[30] I *D spi_wrapper
*CAP
1 io_in[30] 0.000113196
2 *419:io_in[30] 0.000171299
3 *24:19 0.00914406
4 *24:18 0.00897276
5 *24:16 0.0258607
6 *24:15 0.0258607
7 *24:13 0.0475874
8 *24:11 0.0477006
9 *24:19 *29:19 0.00899941
10 *24:19 *63:7 0.0169862
11 *24:19 *75:9 0.0655083
*RES
1 io_in[30] *24:11 1.395 
2 *24:11 *24:13 370.71 
3 *24:13 *24:15 4.5 
4 *24:15 *24:16 199.17 
5 *24:16 *24:18 4.5 
6 *24:18 *24:19 235.53 
7 *24:19 *419:io_in[30] 14.67 
*END

*D_NET *25 0.3391
*CONN
*P io_in[31] I
*I *419:io_in[31] I *D spi_wrapper
*CAP
1 io_in[31] 0.00177706
2 *419:io_in[31] 0.00104968
3 *25:15 0.00762081
4 *25:14 0.00657114
5 *25:12 0.0359897
6 *25:11 0.0359897
7 *25:9 0.0454758
8 *25:7 0.0472529
9 *25:15 *38:19 0.0660495
10 *25:15 *61:8 0.0860053
11 *22:11 *25:15 0.00531803
*RES
1 io_in[31] *25:7 13.185 
2 *25:7 *25:9 355.14 
3 *25:9 *25:11 4.5 
4 *25:11 *25:12 275.85 
5 *25:12 *25:14 4.5 
6 *25:14 *25:15 245.79 
7 *25:15 *419:io_in[31] 11.565 
*END

*D_NET *26 0.365995
*CONN
*P io_in[32] I
*I *419:io_in[32] I *D spi_wrapper
*CAP
1 io_in[32] 0.000323383
2 *419:io_in[32] 0.000327536
3 *26:19 0.00162359
4 *26:18 0.00129605
5 *26:16 0.0438686
6 *26:15 0.0438686
7 *26:13 0.0465106
8 *26:11 0.0468339
9 *419:io_in[32] *76:5 0.00130221
10 *419:io_in[32] *76:11 0.0048147
11 *419:io_in[32] *76:15 0.000383772
12 *26:19 *59:5 0.0922784
13 *26:19 *63:7 0.0143056
14 *26:19 *76:5 0.0595723
15 *26:19 *77:7 0.00386495
16 *2:11 *419:io_in[32] 0.00413633
17 *2:11 *26:19 0.000684584
*RES
1 io_in[32] *26:11 3.015 
2 *26:11 *26:13 362.61 
3 *26:13 *26:15 4.5 
4 *26:15 *26:16 338.13 
5 *26:16 *26:18 4.5 
6 *26:18 *26:19 236.34 
7 *26:19 *419:io_in[32] 27.27 
*END

*D_NET *27 0.338131
*CONN
*P io_in[33] I
*I *419:io_in[33] I *D spi_wrapper
*CAP
1 io_in[33] 0.000242542
2 *419:io_in[33] 0.00192882
3 *27:19 0.0188889
4 *27:18 0.0169601
5 *27:16 0.0546096
6 *27:15 0.0546096
7 *27:13 0.0467996
8 *27:11 0.0470422
9 *27:19 *45:10 0.00187028
10 *27:19 *48:10 0.00372943
11 *27:19 *66:8 0.0113787
12 *27:19 *73:8 0.0800709
*RES
1 io_in[33] *27:11 2.475 
2 *27:11 *27:13 365.31 
3 *27:13 *27:15 4.5 
4 *27:15 *27:16 419.31 
5 *27:16 *27:18 4.5 
6 *27:18 *27:19 263.61 
7 *27:19 *419:io_in[33] 17.325 
*END

*D_NET *28 0.421472
*CONN
*P io_in[34] I
*I *419:io_in[34] I *D spi_wrapper
*CAP
1 io_in[34] 0.000177869
2 *419:io_in[34] 0.000279497
3 *28:19 0.00244743
4 *28:18 0.00216793
5 *28:16 0.0617589
6 *28:15 0.0617589
7 *28:13 0.0460971
8 *28:11 0.046275
9 *28:19 *40:12 0.00503523
10 *28:19 *50:10 0.0047463
11 *28:19 *62:8 0.0987262
12 *28:19 *99:8 0.0191563
13 *28:19 *99:20 0.0636515
14 *12:11 *28:19 0.00694818
15 *20:13 *28:19 0.00224517
*RES
1 io_in[34] *28:11 1.935 
2 *28:11 *28:13 359.91 
3 *28:13 *28:15 4.5 
4 *28:15 *28:16 475.83 
5 *28:16 *28:18 4.5 
6 *28:18 *28:19 276.57 
7 *28:19 *419:io_in[34] 6.345 
*END

*D_NET *29 0.438941
*CONN
*P io_in[35] I
*I *419:io_in[35] I *D spi_wrapper
*CAP
1 io_in[35] 0.000113196
2 *419:io_in[35] 0.000264194
3 *29:19 0.00347467
4 *29:18 0.00321048
5 *29:16 0.0698528
6 *29:15 0.0698528
7 *29:13 0.0452713
8 *29:11 0.0453845
9 *29:19 *63:7 0
10 *29:19 *68:9 0.115699
11 *29:19 *75:9 0.0032847
12 *29:19 *78:9 0.0735339
13 *24:19 *29:19 0.00899941
*RES
1 io_in[35] *29:11 1.395 
2 *29:11 *29:13 354.51 
3 *29:13 *29:15 4.5 
4 *29:15 *29:16 538.83 
5 *29:16 *29:18 4.5 
6 *29:18 *29:19 289.53 
7 *29:19 *419:io_in[35] 15.21 
*END

*D_NET *30 0.348466
*CONN
*P io_in[36] I
*I *419:io_in[36] I *D spi_wrapper
*CAP
1 io_in[36] 0.00177706
2 *419:io_in[36] 0.0020741
3 *30:12 0.0811533
4 *30:11 0.0790792
5 *30:9 0.0851556
6 *30:7 0.0869327
7 *419:io_in[36] *40:12 0.000926567
8 *419:io_in[36] *99:20 0.0019893
9 *2:11 *419:io_in[36] 0
10 *3:18 *30:12 0
11 *12:11 *419:io_in[36] 0.00937777
*RES
1 io_in[36] *30:7 13.185 
2 *30:7 *30:9 667.08 
3 *30:9 *30:11 4.5 
4 *30:11 *30:12 610.29 
5 *30:12 *419:io_in[36] 49.095 
*END

*D_NET *31 0.355295
*CONN
*P io_in[37] I
*I *419:io_in[37] I *D spi_wrapper
*CAP
1 io_in[37] 0.000323383
2 *419:io_in[37] 0.00106446
3 *31:16 0.0888692
4 *31:15 0.0878048
5 *31:13 0.0865137
6 *31:11 0.0868371
7 *419:io_in[37] *69:7 0.000934472
8 *419:io_in[37] *75:9 0.00123897
9 *419:io_in[37] *76:19 0.00125475
10 *419:io_in[37] *76:23 0.000454488
11 *3:18 *31:16 0
*RES
1 io_in[37] *31:11 3.015 
2 *31:11 *31:13 677.25 
3 *31:13 *31:15 4.5 
4 *31:15 *31:16 677.79 
5 *31:16 *419:io_in[37] 27.72 
*END

*D_NET *32 0.630998
*CONN
*P io_in[3] I
*I *419:io_in[3] I *D spi_wrapper
*CAP
1 io_in[3] 0.000427849
2 *419:io_in[3] 0.00185396
3 *32:11 0.0558037
4 *32:10 0.0539497
5 *32:8 0.00321346
6 *32:7 0.00364131
7 *32:8 *39:17 0.000208944
8 *32:8 *61:11 0.212209
9 *32:8 *70:11 0.197554
10 *32:11 *46:10 0
11 *32:11 *73:8 0.00663041
12 *32:11 *104:8 0.0950651
13 *23:8 *32:8 0.000440019
*RES
1 io_in[3] *32:7 7.965 
2 *32:7 *32:8 545.13 
3 *32:8 *32:10 4.5 
4 *32:10 *32:11 551.43 
5 *32:11 *419:io_in[3] 16.605 